file 3063714 1680833967                                         
version 2
run Default-0-20230407-02:10:50-4128
attr configname Default
attr datetime 20230407-02:10:50
attr experiment Default
attr inifile omnetpp.ini
attr iterationvars ""
attr iterationvarsf ""
attr measurement ""
attr network RSUExampleScenario
attr processid 4128
attr repetition 0
attr replication #0
attr resultdir results
attr runnumber 0
attr seedset 0
param *.playgroundSizeX 2500m
param *.playgroundSizeY 2500m
param *.playgroundSizeZ 50m
param *.annotations.draw true
param *.obstacles.obstacles "xmldoc(\"config.xml\", \"//AnalogueModel[@type='SimpleObstacleShadowing']/obstacles\")"
param *.manager.updateInterval 1s
param *.manager.host "\"localhost\""
param *.manager.port 9999
param *.manager.autoShutdown true
param *.manager.launchConfig "xmldoc(\"mtl.launchd.xml\")"
param *.rsu[0].mobility.x 2000
param *.rsu[0].mobility.y 2000
param *.rsu[0].mobility.z 3
param *.rsu[*].applType "\"TraCIDemoRSU11p\""
param *.rsu[*].appl.headerLength "80 bit"
param *.rsu[*].appl.sendBeacons false
param *.rsu[*].appl.dataOnSch false
param *.rsu[*].appl.beaconInterval 1s
param *.rsu[*].appl.beaconUserPriority 7
param *.rsu[*].appl.dataUserPriority 5
param *.rsu[*].nic.phy80211p.antennaOffsetZ "0 m"
param *.connectionManager.sendDirect true
param *.connectionManager.maxInterfDist 2600m
param *.connectionManager.drawMaxIntfDist false
param *.**.nic.mac1609_4.useServiceChannel false
param *.**.nic.mac1609_4.txPower 20mW
param *.**.nic.mac1609_4.bitrate 6Mbps
param *.**.nic.phy80211p.minPowerLevel -110dBm
param *.**.nic.phy80211p.useNoiseFloor true
param *.**.nic.phy80211p.noiseFloor -98dBm
param *.**.nic.phy80211p.decider "xmldoc(\"config.xml\")"
param *.**.nic.phy80211p.analogueModels "xmldoc(\"config.xml\")"
param *.**.nic.phy80211p.usePropagationDelay true
param *.**.nic.phy80211p.antenna "xmldoc(\"antenna.xml\", \"/root/Antenna[@id='monopole']\")"
param *.node[*].nic.phy80211p.antennaOffsetY "0 m"
param *.node[*].nic.phy80211p.antennaOffsetZ "1.895 m"
param *.node[*].applType "\"TraCIDemo11p\""
param *.node[*].appl.headerLength "80 bit"
param *.node[*].appl.sendBeacons false
param *.node[*].appl.dataOnSch false
param *.node[*].appl.beaconInterval 1s
param *.node[*].veinsmobility.x 0
param *.node[*].veinsmobility.y 0
param *.node[*].veinsmobility.z 0
param *.node[*].veinsmobility.setHostSpeed false
param *.node[*0].veinsmobility.accidentCount 1
param *.node[*0].veinsmobility.accidentStart 73s
param *.node[*0].veinsmobility.accidentDuration 50s

vector 0 RSUExampleScenario.node[0].veinsmobility posx ETV
vector 1 RSUExampleScenario.node[0].veinsmobility posy ETV
vector 2 RSUExampleScenario.node[1].veinsmobility posx ETV
vector 3 RSUExampleScenario.node[1].veinsmobility posy ETV
vector 4 RSUExampleScenario.node[0].veinsmobility speed ETV
vector 5 RSUExampleScenario.node[2].veinsmobility posx ETV
vector 6 RSUExampleScenario.node[2].veinsmobility posy ETV
vector 7 RSUExampleScenario.node[0].veinsmobility acceleration ETV
vector 8 RSUExampleScenario.node[0].veinsmobility co2emission ETV
vector 9 RSUExampleScenario.node[1].veinsmobility speed ETV
vector 10 RSUExampleScenario.node[3].veinsmobility posx ETV
vector 11 RSUExampleScenario.node[3].veinsmobility posy ETV
vector 12 RSUExampleScenario.node[1].veinsmobility acceleration ETV
vector 13 RSUExampleScenario.node[1].veinsmobility co2emission ETV
vector 14 RSUExampleScenario.node[2].veinsmobility speed ETV
vector 15 RSUExampleScenario.node[4].veinsmobility posx ETV
vector 16 RSUExampleScenario.node[4].veinsmobility posy ETV
vector 17 RSUExampleScenario.node[2].veinsmobility acceleration ETV
vector 18 RSUExampleScenario.node[2].veinsmobility co2emission ETV
vector 19 RSUExampleScenario.node[3].veinsmobility speed ETV
vector 20 RSUExampleScenario.node[5].veinsmobility posx ETV
vector 21 RSUExampleScenario.node[5].veinsmobility posy ETV
vector 22 RSUExampleScenario.node[3].veinsmobility acceleration ETV
vector 23 RSUExampleScenario.node[3].veinsmobility co2emission ETV
vector 24 RSUExampleScenario.node[4].veinsmobility speed ETV
vector 25 RSUExampleScenario.node[6].veinsmobility posx ETV
vector 26 RSUExampleScenario.node[6].veinsmobility posy ETV
vector 27 RSUExampleScenario.node[4].veinsmobility acceleration ETV
vector 28 RSUExampleScenario.node[4].veinsmobility co2emission ETV
vector 29 RSUExampleScenario.node[5].veinsmobility speed ETV
vector 30 RSUExampleScenario.node[7].veinsmobility posx ETV
vector 31 RSUExampleScenario.node[7].veinsmobility posy ETV
vector 32 RSUExampleScenario.node[5].veinsmobility acceleration ETV
vector 33 RSUExampleScenario.node[5].veinsmobility co2emission ETV
vector 34 RSUExampleScenario.node[6].veinsmobility speed ETV
vector 35 RSUExampleScenario.node[8].veinsmobility posx ETV
vector 36 RSUExampleScenario.node[8].veinsmobility posy ETV
vector 37 RSUExampleScenario.node[6].veinsmobility acceleration ETV
vector 38 RSUExampleScenario.node[6].veinsmobility co2emission ETV
vector 39 RSUExampleScenario.node[7].veinsmobility speed ETV
vector 40 RSUExampleScenario.node[9].veinsmobility posx ETV
vector 41 RSUExampleScenario.node[9].veinsmobility posy ETV
vector 42 RSUExampleScenario.node[7].veinsmobility acceleration ETV
vector 43 RSUExampleScenario.node[7].veinsmobility co2emission ETV
vector 44 RSUExampleScenario.node[8].veinsmobility speed ETV
vector 45 RSUExampleScenario.node[10].veinsmobility posx ETV
vector 46 RSUExampleScenario.node[10].veinsmobility posy ETV
vector 47 RSUExampleScenario.node[8].veinsmobility acceleration ETV
vector 48 RSUExampleScenario.node[8].veinsmobility co2emission ETV
vector 49 RSUExampleScenario.node[9].veinsmobility speed ETV
vector 50 RSUExampleScenario.node[11].veinsmobility posx ETV
vector 51 RSUExampleScenario.node[11].veinsmobility posy ETV
vector 52 RSUExampleScenario.node[9].veinsmobility acceleration ETV
vector 53 RSUExampleScenario.node[9].veinsmobility co2emission ETV
vector 54 RSUExampleScenario.node[10].veinsmobility speed ETV
vector 55 RSUExampleScenario.node[10].veinsmobility acceleration ETV
vector 56 RSUExampleScenario.node[10].veinsmobility co2emission ETV
vector 57 RSUExampleScenario.node[11].veinsmobility speed ETV
vector 58 RSUExampleScenario.node[12].veinsmobility posx ETV
vector 59 RSUExampleScenario.node[12].veinsmobility posy ETV
vector 60 RSUExampleScenario.node[11].veinsmobility acceleration ETV
vector 61 RSUExampleScenario.node[11].veinsmobility co2emission ETV
vector 62 RSUExampleScenario.node[13].veinsmobility posx ETV
vector 63 RSUExampleScenario.node[13].veinsmobility posy ETV
vector 64 RSUExampleScenario.node[12].veinsmobility speed ETV
vector 65 RSUExampleScenario.node[14].veinsmobility posx ETV
vector 66 RSUExampleScenario.node[14].veinsmobility posy ETV
vector 67 RSUExampleScenario.node[12].veinsmobility acceleration ETV
vector 68 RSUExampleScenario.node[12].veinsmobility co2emission ETV
vector 69 RSUExampleScenario.node[13].veinsmobility speed ETV
vector 70 RSUExampleScenario.node[15].veinsmobility posx ETV
vector 71 RSUExampleScenario.node[15].veinsmobility posy ETV
vector 72 RSUExampleScenario.node[13].veinsmobility acceleration ETV
vector 73 RSUExampleScenario.node[13].veinsmobility co2emission ETV
vector 74 RSUExampleScenario.node[14].veinsmobility speed ETV
vector 75 RSUExampleScenario.node[16].veinsmobility posx ETV
vector 76 RSUExampleScenario.node[16].veinsmobility posy ETV
vector 77 RSUExampleScenario.node[14].veinsmobility acceleration ETV
vector 78 RSUExampleScenario.node[14].veinsmobility co2emission ETV
vector 79 RSUExampleScenario.node[15].veinsmobility speed ETV
vector 80 RSUExampleScenario.node[17].veinsmobility posx ETV
vector 81 RSUExampleScenario.node[17].veinsmobility posy ETV
vector 82 RSUExampleScenario.node[15].veinsmobility acceleration ETV
vector 83 RSUExampleScenario.node[15].veinsmobility co2emission ETV
vector 84 RSUExampleScenario.node[16].veinsmobility speed ETV
vector 85 RSUExampleScenario.node[18].veinsmobility posx ETV
vector 86 RSUExampleScenario.node[18].veinsmobility posy ETV
vector 87 RSUExampleScenario.node[16].veinsmobility acceleration ETV
vector 88 RSUExampleScenario.node[16].veinsmobility co2emission ETV
vector 89 RSUExampleScenario.node[17].veinsmobility speed ETV
vector 90 RSUExampleScenario.node[19].veinsmobility posx ETV
vector 91 RSUExampleScenario.node[19].veinsmobility posy ETV
vector 92 RSUExampleScenario.node[17].veinsmobility acceleration ETV
vector 93 RSUExampleScenario.node[17].veinsmobility co2emission ETV
vector 94 RSUExampleScenario.node[18].veinsmobility speed ETV
vector 95 RSUExampleScenario.node[20].veinsmobility posx ETV
vector 96 RSUExampleScenario.node[20].veinsmobility posy ETV
vector 97 RSUExampleScenario.node[18].veinsmobility acceleration ETV
vector 98 RSUExampleScenario.node[18].veinsmobility co2emission ETV
vector 99 RSUExampleScenario.node[19].veinsmobility speed ETV
vector 100 RSUExampleScenario.node[21].veinsmobility posx ETV
vector 101 RSUExampleScenario.node[21].veinsmobility posy ETV
vector 102 RSUExampleScenario.node[19].veinsmobility acceleration ETV
vector 103 RSUExampleScenario.node[19].veinsmobility co2emission ETV
vector 104 RSUExampleScenario.node[20].veinsmobility speed ETV
vector 105 RSUExampleScenario.node[22].veinsmobility posx ETV
vector 106 RSUExampleScenario.node[22].veinsmobility posy ETV
vector 107 RSUExampleScenario.node[20].veinsmobility acceleration ETV
vector 108 RSUExampleScenario.node[20].veinsmobility co2emission ETV
vector 109 RSUExampleScenario.node[21].veinsmobility speed ETV
vector 110 RSUExampleScenario.node[23].veinsmobility posx ETV
vector 111 RSUExampleScenario.node[23].veinsmobility posy ETV
vector 112 RSUExampleScenario.node[21].veinsmobility acceleration ETV
vector 113 RSUExampleScenario.node[21].veinsmobility co2emission ETV
vector 114 RSUExampleScenario.node[22].veinsmobility speed ETV
vector 115 RSUExampleScenario.node[24].veinsmobility posx ETV
vector 116 RSUExampleScenario.node[24].veinsmobility posy ETV
vector 117 RSUExampleScenario.node[22].veinsmobility acceleration ETV
vector 118 RSUExampleScenario.node[22].veinsmobility co2emission ETV
vector 119 RSUExampleScenario.node[23].veinsmobility speed ETV
vector 120 RSUExampleScenario.node[23].veinsmobility acceleration ETV
vector 121 RSUExampleScenario.node[23].veinsmobility co2emission ETV
vector 122 RSUExampleScenario.node[24].veinsmobility speed ETV
vector 123 RSUExampleScenario.node[25].veinsmobility posx ETV
vector 124 RSUExampleScenario.node[25].veinsmobility posy ETV
vector 125 RSUExampleScenario.node[26].veinsmobility posx ETV
vector 126 RSUExampleScenario.node[26].veinsmobility posy ETV
vector 127 RSUExampleScenario.node[24].veinsmobility acceleration ETV
vector 128 RSUExampleScenario.node[24].veinsmobility co2emission ETV
vector 129 RSUExampleScenario.node[27].veinsmobility posx ETV
vector 130 RSUExampleScenario.node[27].veinsmobility posy ETV
vector 131 RSUExampleScenario.node[25].veinsmobility speed ETV
vector 132 RSUExampleScenario.node[26].veinsmobility speed ETV
vector 133 RSUExampleScenario.node[28].veinsmobility posx ETV
vector 134 RSUExampleScenario.node[28].veinsmobility posy ETV
vector 135 RSUExampleScenario.node[25].veinsmobility acceleration ETV
vector 136 RSUExampleScenario.node[25].veinsmobility co2emission ETV
vector 137 RSUExampleScenario.node[26].veinsmobility acceleration ETV
vector 138 RSUExampleScenario.node[26].veinsmobility co2emission ETV
vector 139 RSUExampleScenario.node[27].veinsmobility speed ETV
vector 140 RSUExampleScenario.node[29].veinsmobility posx ETV
vector 141 RSUExampleScenario.node[29].veinsmobility posy ETV
vector 142 RSUExampleScenario.node[27].veinsmobility acceleration ETV
vector 143 RSUExampleScenario.node[27].veinsmobility co2emission ETV
vector 144 RSUExampleScenario.node[28].veinsmobility speed ETV
vector 145 RSUExampleScenario.node[30].veinsmobility posx ETV
vector 146 RSUExampleScenario.node[30].veinsmobility posy ETV
vector 147 RSUExampleScenario.node[28].veinsmobility acceleration ETV
vector 148 RSUExampleScenario.node[28].veinsmobility co2emission ETV
vector 149 RSUExampleScenario.node[29].veinsmobility speed ETV
vector 150 RSUExampleScenario.node[31].veinsmobility posx ETV
vector 151 RSUExampleScenario.node[31].veinsmobility posy ETV
vector 152 RSUExampleScenario.node[29].veinsmobility acceleration ETV
vector 153 RSUExampleScenario.node[29].veinsmobility co2emission ETV
vector 154 RSUExampleScenario.node[30].veinsmobility speed ETV
vector 155 RSUExampleScenario.node[32].veinsmobility posx ETV
vector 156 RSUExampleScenario.node[32].veinsmobility posy ETV
vector 157 RSUExampleScenario.node[30].veinsmobility acceleration ETV
vector 158 RSUExampleScenario.node[30].veinsmobility co2emission ETV
vector 159 RSUExampleScenario.node[31].veinsmobility speed ETV
vector 160 RSUExampleScenario.node[31].veinsmobility acceleration ETV
vector 161 RSUExampleScenario.node[31].veinsmobility co2emission ETV
vector 162 RSUExampleScenario.node[32].veinsmobility speed ETV
vector 163 RSUExampleScenario.node[33].veinsmobility posx ETV
vector 164 RSUExampleScenario.node[33].veinsmobility posy ETV
vector 165 RSUExampleScenario.node[32].veinsmobility acceleration ETV
vector 166 RSUExampleScenario.node[32].veinsmobility co2emission ETV
vector 167 RSUExampleScenario.node[34].veinsmobility posx ETV
vector 168 RSUExampleScenario.node[34].veinsmobility posy ETV
vector 169 RSUExampleScenario.node[33].veinsmobility speed ETV
vector 170 RSUExampleScenario.node[35].veinsmobility posx ETV
vector 171 RSUExampleScenario.node[35].veinsmobility posy ETV
vector 172 RSUExampleScenario.node[33].veinsmobility acceleration ETV
vector 173 RSUExampleScenario.node[33].veinsmobility co2emission ETV
vector 174 RSUExampleScenario.node[34].veinsmobility speed ETV
vector 175 RSUExampleScenario.node[36].veinsmobility posx ETV
vector 176 RSUExampleScenario.node[36].veinsmobility posy ETV
vector 177 RSUExampleScenario.node[34].veinsmobility acceleration ETV
vector 178 RSUExampleScenario.node[34].veinsmobility co2emission ETV
vector 179 RSUExampleScenario.node[35].veinsmobility speed ETV
vector 180 RSUExampleScenario.node[37].veinsmobility posx ETV
vector 181 RSUExampleScenario.node[37].veinsmobility posy ETV
vector 182 RSUExampleScenario.node[35].veinsmobility acceleration ETV
vector 183 RSUExampleScenario.node[35].veinsmobility co2emission ETV
vector 184 RSUExampleScenario.node[36].veinsmobility speed ETV
vector 185 RSUExampleScenario.node[38].veinsmobility posx ETV
vector 186 RSUExampleScenario.node[38].veinsmobility posy ETV
vector 187 RSUExampleScenario.node[36].veinsmobility acceleration ETV
vector 188 RSUExampleScenario.node[36].veinsmobility co2emission ETV
vector 189 RSUExampleScenario.node[37].veinsmobility speed ETV
vector 190 RSUExampleScenario.node[39].veinsmobility posx ETV
vector 191 RSUExampleScenario.node[39].veinsmobility posy ETV
vector 192 RSUExampleScenario.node[37].veinsmobility acceleration ETV
vector 193 RSUExampleScenario.node[37].veinsmobility co2emission ETV
vector 194 RSUExampleScenario.node[38].veinsmobility speed ETV
vector 195 RSUExampleScenario.node[40].veinsmobility posx ETV
vector 196 RSUExampleScenario.node[40].veinsmobility posy ETV
vector 197 RSUExampleScenario.node[38].veinsmobility acceleration ETV
vector 198 RSUExampleScenario.node[38].veinsmobility co2emission ETV
vector 199 RSUExampleScenario.node[39].veinsmobility speed ETV
vector 200 RSUExampleScenario.node[41].veinsmobility posx ETV
vector 201 RSUExampleScenario.node[41].veinsmobility posy ETV
vector 202 RSUExampleScenario.node[39].veinsmobility acceleration ETV
vector 203 RSUExampleScenario.node[39].veinsmobility co2emission ETV
vector 204 RSUExampleScenario.node[40].veinsmobility speed ETV
vector 205 RSUExampleScenario.node[42].veinsmobility posx ETV
vector 206 RSUExampleScenario.node[42].veinsmobility posy ETV
vector 207 RSUExampleScenario.node[40].veinsmobility acceleration ETV
vector 208 RSUExampleScenario.node[40].veinsmobility co2emission ETV
vector 209 RSUExampleScenario.node[41].veinsmobility speed ETV
vector 210 RSUExampleScenario.node[43].veinsmobility posx ETV
vector 211 RSUExampleScenario.node[43].veinsmobility posy ETV
vector 212 RSUExampleScenario.node[41].veinsmobility acceleration ETV
vector 213 RSUExampleScenario.node[41].veinsmobility co2emission ETV
vector 214 RSUExampleScenario.node[42].veinsmobility speed ETV
vector 215 RSUExampleScenario.node[44].veinsmobility posx ETV
vector 216 RSUExampleScenario.node[44].veinsmobility posy ETV
vector 217 RSUExampleScenario.node[42].veinsmobility acceleration ETV
vector 218 RSUExampleScenario.node[42].veinsmobility co2emission ETV
vector 219 RSUExampleScenario.node[43].veinsmobility speed ETV
vector 220 RSUExampleScenario.node[45].veinsmobility posx ETV
vector 221 RSUExampleScenario.node[45].veinsmobility posy ETV
vector 222 RSUExampleScenario.node[43].veinsmobility acceleration ETV
vector 223 RSUExampleScenario.node[43].veinsmobility co2emission ETV
vector 224 RSUExampleScenario.node[44].veinsmobility speed ETV
vector 225 RSUExampleScenario.node[46].veinsmobility posx ETV
vector 226 RSUExampleScenario.node[46].veinsmobility posy ETV
vector 227 RSUExampleScenario.node[44].veinsmobility acceleration ETV
vector 228 RSUExampleScenario.node[44].veinsmobility co2emission ETV
vector 229 RSUExampleScenario.node[45].veinsmobility speed ETV
vector 230 RSUExampleScenario.node[47].veinsmobility posx ETV
vector 231 RSUExampleScenario.node[47].veinsmobility posy ETV
vector 232 RSUExampleScenario.node[45].veinsmobility acceleration ETV
vector 233 RSUExampleScenario.node[45].veinsmobility co2emission ETV
vector 234 RSUExampleScenario.node[46].veinsmobility speed ETV
vector 235 RSUExampleScenario.node[48].veinsmobility posx ETV
vector 236 RSUExampleScenario.node[48].veinsmobility posy ETV
vector 237 RSUExampleScenario.node[46].veinsmobility acceleration ETV
vector 238 RSUExampleScenario.node[46].veinsmobility co2emission ETV
vector 239 RSUExampleScenario.node[47].veinsmobility speed ETV
vector 240 RSUExampleScenario.node[47].veinsmobility acceleration ETV
vector 241 RSUExampleScenario.node[47].veinsmobility co2emission ETV
vector 242 RSUExampleScenario.node[48].veinsmobility speed ETV
vector 243 RSUExampleScenario.node[48].veinsmobility acceleration ETV
vector 244 RSUExampleScenario.node[48].veinsmobility co2emission ETV
vector 245 RSUExampleScenario.node[49].veinsmobility posx ETV
vector 246 RSUExampleScenario.node[49].veinsmobility posy ETV
vector 247 RSUExampleScenario.node[50].veinsmobility posx ETV
vector 248 RSUExampleScenario.node[50].veinsmobility posy ETV
vector 249 RSUExampleScenario.node[49].veinsmobility speed ETV
vector 250 RSUExampleScenario.node[51].veinsmobility posx ETV
vector 251 RSUExampleScenario.node[51].veinsmobility posy ETV
vector 252 RSUExampleScenario.node[49].veinsmobility acceleration ETV
vector 253 RSUExampleScenario.node[49].veinsmobility co2emission ETV
vector 254 RSUExampleScenario.node[50].veinsmobility speed ETV
vector 255 RSUExampleScenario.node[52].veinsmobility posx ETV
vector 256 RSUExampleScenario.node[52].veinsmobility posy ETV
vector 257 RSUExampleScenario.node[50].veinsmobility acceleration ETV
vector 258 RSUExampleScenario.node[50].veinsmobility co2emission ETV
vector 259 RSUExampleScenario.node[51].veinsmobility speed ETV
vector 260 RSUExampleScenario.node[53].veinsmobility posx ETV
vector 261 RSUExampleScenario.node[53].veinsmobility posy ETV
vector 262 RSUExampleScenario.node[51].veinsmobility acceleration ETV
vector 263 RSUExampleScenario.node[51].veinsmobility co2emission ETV
vector 264 RSUExampleScenario.node[52].veinsmobility speed ETV
vector 265 RSUExampleScenario.node[54].veinsmobility posx ETV
vector 266 RSUExampleScenario.node[54].veinsmobility posy ETV
vector 267 RSUExampleScenario.node[52].veinsmobility acceleration ETV
vector 268 RSUExampleScenario.node[52].veinsmobility co2emission ETV
vector 269 RSUExampleScenario.node[53].veinsmobility speed ETV
vector 270 RSUExampleScenario.node[55].veinsmobility posx ETV
vector 271 RSUExampleScenario.node[55].veinsmobility posy ETV
vector 272 RSUExampleScenario.node[53].veinsmobility acceleration ETV
vector 273 RSUExampleScenario.node[53].veinsmobility co2emission ETV
vector 274 RSUExampleScenario.node[54].veinsmobility speed ETV
vector 275 RSUExampleScenario.node[54].veinsmobility acceleration ETV
vector 276 RSUExampleScenario.node[54].veinsmobility co2emission ETV
vector 277 RSUExampleScenario.node[55].veinsmobility speed ETV
vector 278 RSUExampleScenario.node[56].veinsmobility posx ETV
vector 279 RSUExampleScenario.node[56].veinsmobility posy ETV
vector 280 RSUExampleScenario.node[55].veinsmobility acceleration ETV
vector 281 RSUExampleScenario.node[55].veinsmobility co2emission ETV
53	20698 1219 13 4028 12 62 51 0.83993050489354 13.290362440103 189.33455175849 1265.5583824098
52	21917 1380 13 4028 12 62 51 -4.4812932914472 2.167605044907 6.4369447769026 159.76386592707
49	23297 1350 12 4028 11 62 52 4.0772753175295 22.592506998794 604.34466479721 7827.7768300432
41	24647 1377 11 4028 10 62 53 765.66100876448 988.19852359159 45764.469401816 39817772.905838
40	26024 1375 11 4028 10 62 53 710.381902767 1035.5748658357 44642.530343838 38249307.62533
vector 282 RSUExampleScenario.node[57].veinsmobility posx ETV
vector 283 RSUExampleScenario.node[57].veinsmobility posy ETV
vector 284 RSUExampleScenario.node[56].veinsmobility speed ETV
vector 285 RSUExampleScenario.node[58].veinsmobility posx ETV
vector 286 RSUExampleScenario.node[58].veinsmobility posy ETV
vector 287 RSUExampleScenario.node[56].veinsmobility acceleration ETV
vector 288 RSUExampleScenario.node[56].veinsmobility co2emission ETV
vector 289 RSUExampleScenario.node[57].veinsmobility speed ETV
vector 290 RSUExampleScenario.node[59].veinsmobility posx ETV
vector 291 RSUExampleScenario.node[59].veinsmobility posy ETV
vector 292 RSUExampleScenario.node[57].veinsmobility acceleration ETV
vector 293 RSUExampleScenario.node[57].veinsmobility co2emission ETV
vector 294 RSUExampleScenario.node[58].veinsmobility speed ETV
vector 295 RSUExampleScenario.node[60].veinsmobility posx ETV
vector 296 RSUExampleScenario.node[60].veinsmobility posy ETV
vector 297 RSUExampleScenario.node[58].veinsmobility acceleration ETV
vector 298 RSUExampleScenario.node[58].veinsmobility co2emission ETV
vector 299 RSUExampleScenario.node[59].veinsmobility speed ETV
vector 300 RSUExampleScenario.node[61].veinsmobility posx ETV
vector 301 RSUExampleScenario.node[61].veinsmobility posy ETV
vector 302 RSUExampleScenario.node[59].veinsmobility acceleration ETV
vector 303 RSUExampleScenario.node[59].veinsmobility co2emission ETV
vector 304 RSUExampleScenario.node[60].veinsmobility speed ETV
vector 305 RSUExampleScenario.node[62].veinsmobility posx ETV
vector 306 RSUExampleScenario.node[62].veinsmobility posy ETV
vector 307 RSUExampleScenario.node[60].veinsmobility acceleration ETV
vector 308 RSUExampleScenario.node[60].veinsmobility co2emission ETV
vector 309 RSUExampleScenario.node[61].veinsmobility speed ETV
vector 310 RSUExampleScenario.node[63].veinsmobility posx ETV
vector 311 RSUExampleScenario.node[63].veinsmobility posy ETV
vector 312 RSUExampleScenario.node[61].veinsmobility acceleration ETV
vector 313 RSUExampleScenario.node[61].veinsmobility co2emission ETV
vector 314 RSUExampleScenario.node[62].veinsmobility speed ETV
vector 315 RSUExampleScenario.node[64].veinsmobility posx ETV
vector 316 RSUExampleScenario.node[64].veinsmobility posy ETV
vector 317 RSUExampleScenario.node[62].veinsmobility acceleration ETV
vector 318 RSUExampleScenario.node[62].veinsmobility co2emission ETV
vector 319 RSUExampleScenario.node[63].veinsmobility speed ETV
vector 320 RSUExampleScenario.node[65].veinsmobility posx ETV
vector 321 RSUExampleScenario.node[65].veinsmobility posy ETV
vector 322 RSUExampleScenario.node[63].veinsmobility acceleration ETV
vector 323 RSUExampleScenario.node[63].veinsmobility co2emission ETV
vector 324 RSUExampleScenario.node[64].veinsmobility speed ETV
vector 325 RSUExampleScenario.node[66].veinsmobility posx ETV
vector 326 RSUExampleScenario.node[66].veinsmobility posy ETV
vector 327 RSUExampleScenario.node[64].veinsmobility acceleration ETV
vector 328 RSUExampleScenario.node[64].veinsmobility co2emission ETV
vector 329 RSUExampleScenario.node[65].veinsmobility speed ETV
vector 330 RSUExampleScenario.node[67].veinsmobility posx ETV
vector 331 RSUExampleScenario.node[67].veinsmobility posy ETV
vector 332 RSUExampleScenario.node[65].veinsmobility acceleration ETV
vector 333 RSUExampleScenario.node[65].veinsmobility co2emission ETV
vector 334 RSUExampleScenario.node[66].veinsmobility speed ETV
vector 335 RSUExampleScenario.node[68].veinsmobility posx ETV
vector 336 RSUExampleScenario.node[68].veinsmobility posy ETV
vector 337 RSUExampleScenario.node[66].veinsmobility acceleration ETV
vector 338 RSUExampleScenario.node[66].veinsmobility co2emission ETV
vector 339 RSUExampleScenario.node[67].veinsmobility speed ETV
vector 340 RSUExampleScenario.node[69].veinsmobility posx ETV
vector 341 RSUExampleScenario.node[69].veinsmobility posy ETV
vector 342 RSUExampleScenario.node[67].veinsmobility acceleration ETV
vector 343 RSUExampleScenario.node[67].veinsmobility co2emission ETV
vector 344 RSUExampleScenario.node[68].veinsmobility speed ETV
vector 345 RSUExampleScenario.node[70].veinsmobility posx ETV
vector 346 RSUExampleScenario.node[70].veinsmobility posy ETV
vector 347 RSUExampleScenario.node[68].veinsmobility acceleration ETV
vector 348 RSUExampleScenario.node[68].veinsmobility co2emission ETV
vector 349 RSUExampleScenario.node[69].veinsmobility speed ETV
vector 350 RSUExampleScenario.node[71].veinsmobility posx ETV
vector 351 RSUExampleScenario.node[71].veinsmobility posy ETV
vector 352 RSUExampleScenario.node[69].veinsmobility acceleration ETV
vector 353 RSUExampleScenario.node[69].veinsmobility co2emission ETV
vector 354 RSUExampleScenario.node[70].veinsmobility speed ETV
vector 355 RSUExampleScenario.node[72].veinsmobility posx ETV
vector 356 RSUExampleScenario.node[72].veinsmobility posy ETV
vector 357 RSUExampleScenario.node[70].veinsmobility acceleration ETV
vector 358 RSUExampleScenario.node[70].veinsmobility co2emission ETV
vector 359 RSUExampleScenario.node[71].veinsmobility speed ETV
83	32476 1188 20 4986 19 78 60 0.973 7.1322563702195 95.898388539898 257.41482723634
82	33664 1113 20 4986 19 78 60 -4.4721100524072 2.3044024259724 4.5845309772562 70.969849791707
79	34777 1096 19 4986 18 78 61 0 10.572111328356 179.65031448932 1445.1111901085
71	35873 1638 18 4986 17 78 62 350.54008654606 479.91378180617 27504.116112702 12264246.76996
70	37511 1638 18 4986 17 78 62 1740.3319799188 1786.0622867019 108700.8132681 190587899.50235
vector 360 RSUExampleScenario.node[73].veinsmobility posx ETV
vector 361 RSUExampleScenario.node[73].veinsmobility posy ETV
vector 362 RSUExampleScenario.node[71].veinsmobility acceleration ETV
vector 363 RSUExampleScenario.node[71].veinsmobility co2emission ETV
vector 364 RSUExampleScenario.node[72].veinsmobility speed ETV
vector 365 RSUExampleScenario.node[74].veinsmobility posx ETV
vector 366 RSUExampleScenario.node[74].veinsmobility posy ETV
vector 367 RSUExampleScenario.node[72].veinsmobility acceleration ETV
vector 368 RSUExampleScenario.node[72].veinsmobility co2emission ETV
vector 369 RSUExampleScenario.node[73].veinsmobility speed ETV
153	39801 1288 122 4988 33 80 48 0.973 5.7341864700596 95.901422400744 258.18346464679
152	41089 1434 122 4988 33 80 48 -2.6952072215465 2.1214878570382 4.7013051638996 41.561133937527
149	42523 1365 121 4988 32 80 49 3.8456590250036 8.7756749149488 392.4073425161 3228.2216915723
141	43888 1390 32 4988 31 80 50 951.02026413701 1144.1613256089 52318.487069348 54928929.731758
140	45278 1388 32 4988 31 80 50 1783.0063808574 1950.5206896637 93738.913717785 175898404.44137
vector 370 RSUExampleScenario.node[75].veinsmobility posx ETV
vector 371 RSUExampleScenario.node[75].veinsmobility posy ETV
vector 372 RSUExampleScenario.node[73].veinsmobility acceleration ETV
vector 373 RSUExampleScenario.node[73].veinsmobility co2emission ETV
vector 374 RSUExampleScenario.node[74].veinsmobility speed ETV
vector 375 RSUExampleScenario.node[76].veinsmobility posx ETV
vector 376 RSUExampleScenario.node[76].veinsmobility posy ETV
vector 377 RSUExampleScenario.node[74].veinsmobility acceleration ETV
vector 378 RSUExampleScenario.node[74].veinsmobility co2emission ETV
vector 379 RSUExampleScenario.node[75].veinsmobility speed ETV
vector 380 RSUExampleScenario.node[77].veinsmobility posx ETV
vector 381 RSUExampleScenario.node[77].veinsmobility posy ETV
vector 382 RSUExampleScenario.node[75].veinsmobility acceleration ETV
vector 383 RSUExampleScenario.node[75].veinsmobility co2emission ETV
vector 384 RSUExampleScenario.node[76].veinsmobility speed ETV
vector 385 RSUExampleScenario.node[78].veinsmobility posx ETV
vector 386 RSUExampleScenario.node[78].veinsmobility posy ETV
vector 387 RSUExampleScenario.node[76].veinsmobility acceleration ETV
vector 388 RSUExampleScenario.node[76].veinsmobility co2emission ETV
vector 389 RSUExampleScenario.node[77].veinsmobility speed ETV
vector 390 RSUExampleScenario.node[79].veinsmobility posx ETV
vector 391 RSUExampleScenario.node[79].veinsmobility posy ETV
vector 392 RSUExampleScenario.node[77].veinsmobility acceleration ETV
vector 393 RSUExampleScenario.node[77].veinsmobility co2emission ETV
vector 394 RSUExampleScenario.node[78].veinsmobility speed ETV
vector 395 RSUExampleScenario.node[80].veinsmobility posx ETV
vector 396 RSUExampleScenario.node[80].veinsmobility posy ETV
vector 397 RSUExampleScenario.node[78].veinsmobility acceleration ETV
vector 398 RSUExampleScenario.node[78].veinsmobility co2emission ETV
vector 399 RSUExampleScenario.node[79].veinsmobility speed ETV
vector 400 RSUExampleScenario.node[81].veinsmobility posx ETV
vector 401 RSUExampleScenario.node[81].veinsmobility posy ETV
vector 402 RSUExampleScenario.node[79].veinsmobility acceleration ETV
vector 403 RSUExampleScenario.node[79].veinsmobility co2emission ETV
vector 404 RSUExampleScenario.node[80].veinsmobility speed ETV
vector 405 RSUExampleScenario.node[82].veinsmobility posx ETV
vector 406 RSUExampleScenario.node[82].veinsmobility posy ETV
vector 407 RSUExampleScenario.node[80].veinsmobility acceleration ETV
vector 408 RSUExampleScenario.node[80].veinsmobility co2emission ETV
vector 409 RSUExampleScenario.node[81].veinsmobility speed ETV
vector 410 RSUExampleScenario.node[83].veinsmobility posx ETV
vector 411 RSUExampleScenario.node[83].veinsmobility posy ETV
vector 412 RSUExampleScenario.node[81].veinsmobility acceleration ETV
vector 413 RSUExampleScenario.node[81].veinsmobility co2emission ETV
vector 414 RSUExampleScenario.node[82].veinsmobility speed ETV
233	49600 1094 3182 7842 50 89 40 0.973 6.2639973065227 90.143981784106 284.64153334886
232	50694 1206 3182 7842 50 89 40 -3.5123610680334 2.2739847285906 5.6107150191738 46.117157014405
229	51900 1143 3181 7842 49 89 41 4.1228806306687 9.8330983571339 380.43347591682 3596.5634341812
221	53043 1171 3180 7842 48 89 42 359.61327613457 599.59973953879 19759.25942935 9513318.5558142
220	54214 1165 3180 7842 48 89 42 2007.3789780378 2227.8414502181 90023.252748225 193143118.03801
vector 415 RSUExampleScenario.node[84].veinsmobility posx ETV
vector 416 RSUExampleScenario.node[84].veinsmobility posy ETV
vector 417 RSUExampleScenario.node[82].veinsmobility acceleration ETV
vector 418 RSUExampleScenario.node[82].veinsmobility co2emission ETV
vector 419 RSUExampleScenario.node[83].veinsmobility speed ETV
vector 420 RSUExampleScenario.node[85].veinsmobility posx ETV
vector 421 RSUExampleScenario.node[85].veinsmobility posy ETV
vector 422 RSUExampleScenario.node[83].veinsmobility acceleration ETV
vector 423 RSUExampleScenario.node[83].veinsmobility co2emission ETV
vector 424 RSUExampleScenario.node[84].veinsmobility speed ETV
vector 425 RSUExampleScenario.node[86].veinsmobility posx ETV
vector 426 RSUExampleScenario.node[86].veinsmobility posy ETV
vector 427 RSUExampleScenario.node[84].veinsmobility acceleration ETV
vector 428 RSUExampleScenario.node[84].veinsmobility co2emission ETV
vector 429 RSUExampleScenario.node[85].veinsmobility speed ETV
vector 430 RSUExampleScenario.node[87].veinsmobility posx ETV
vector 431 RSUExampleScenario.node[87].veinsmobility posy ETV
vector 432 RSUExampleScenario.node[85].veinsmobility acceleration ETV
vector 433 RSUExampleScenario.node[85].veinsmobility co2emission ETV
vector 434 RSUExampleScenario.node[86].veinsmobility speed ETV
vector 435 RSUExampleScenario.node[88].veinsmobility posx ETV
vector 436 RSUExampleScenario.node[88].veinsmobility posy ETV
vector 437 RSUExampleScenario.node[86].veinsmobility acceleration ETV
vector 438 RSUExampleScenario.node[86].veinsmobility co2emission ETV
vector 439 RSUExampleScenario.node[87].veinsmobility speed ETV
vector 440 RSUExampleScenario.node[87].veinsmobility acceleration ETV
vector 441 RSUExampleScenario.node[87].veinsmobility co2emission ETV
vector 442 RSUExampleScenario.node[88].veinsmobility speed ETV
vector 443 RSUExampleScenario.node[89].veinsmobility posx ETV
vector 444 RSUExampleScenario.node[89].veinsmobility posy ETV
vector 445 RSUExampleScenario.node[88].veinsmobility acceleration ETV
vector 446 RSUExampleScenario.node[88].veinsmobility co2emission ETV
88	57474 1668 21 8449 20 96 77 0.973 7.4570878371924 139.66284183311 406.29582738717
87	59142 1666 21 8449 20 96 77 -4.5 2.3766684441669 4.6704554537312 105.6027564048
84	60808 1611 20 8449 19 96 78 0 11.735163828026 383.51569011371 3552.8667074919
76	62419 2097 19 8449 18 96 79 392.8562140029 676.38790395787 46310.996635151 27707959.451967
75	64516 2086 19 8449 18 96 79 1479.756939485 1610.0726604158 124138.7085515 195211997.47415
vector 447 RSUExampleScenario.node[90].veinsmobility posx ETV
vector 448 RSUExampleScenario.node[90].veinsmobility posy ETV
vector 449 RSUExampleScenario.node[89].veinsmobility speed ETV
161	66789 1620 664 8450 35 97 63 0.973 7.5064028440827 148.18941759965 521.28920491802
160	68409 1804 664 8450 35 97 63 -4.5 2.3361292956586 5.8154666523253 101.59922279079
159	70213 1732 663 8450 34 97 64 0 13.213895273845 580.04141631439 5976.8394879844
151	71945 1813 122 8450 33 97 65 931.37014308682 1125.7957208004 66799.89137611 68852092.550821
150	73758 1813 122 8450 33 97 65 667.37416868401 869.60453502923 50568.714694062 39622731.5759
vector 450 RSUExampleScenario.node[89].veinsmobility acceleration ETV
vector 451 RSUExampleScenario.node[89].veinsmobility co2emission ETV
vector 452 RSUExampleScenario.node[90].veinsmobility speed ETV
vector 453 RSUExampleScenario.node[91].veinsmobility posx ETV
vector 454 RSUExampleScenario.node[91].veinsmobility posy ETV
vector 455 RSUExampleScenario.node[90].veinsmobility acceleration ETV
vector 456 RSUExampleScenario.node[90].veinsmobility co2emission ETV
vector 457 RSUExampleScenario.node[92].veinsmobility posx ETV
vector 458 RSUExampleScenario.node[92].veinsmobility posy ETV
vector 459 RSUExampleScenario.node[91].veinsmobility speed ETV
178	76223 1679 1433 8453 39 100 62 0.973 5.1674433902211 110.25010774363 234.8494607073
177	77902 1870 1433 8453 39 100 62 -1.1264345847362 2.1755690815556 4.6593559477976 16.509167665519
174	79772 1759 1339 8453 38 100 63 3.8411307541832 8.575260688686 519.93471886013 4324.5164255479
168	81531 1786 1247 8453 37 100 64 406.19234184444 625.17839829044 33041.560141812 17379359.567511
167	83317 1787 1247 8453 37 100 64 1032.8808569479 1335.2219051727 74431.227069654 87152931.270404
vector 460 RSUExampleScenario.node[91].veinsmobility acceleration ETV
vector 461 RSUExampleScenario.node[91].veinsmobility co2emission ETV
vector 462 RSUExampleScenario.node[92].veinsmobility speed ETV
vector 463 RSUExampleScenario.node[93].veinsmobility posx ETV
vector 464 RSUExampleScenario.node[93].veinsmobility posy ETV
vector 465 RSUExampleScenario.node[92].veinsmobility acceleration ETV
vector 466 RSUExampleScenario.node[92].veinsmobility co2emission ETV
378	85569 541 5156 8665 82 102 21 0.973 4.7398643821116 41.365715739808 110.76026070282
377	86110 589 5156 8665 82 102 21 -4.4800753126244 2.0318433532247 3.5416884100915 43.550333423729
374	86699 576 5155 8665 81 102 22 0 7.3003075397223 112.59320416915 745.77221854594
366	87275 644 4988 8665 80 102 23 686.07418860717 739.25061096598 16481.56184304 11815536.825452
365	87919 645 4988 8665 80 102 23 1404.7688246916 1501.290385274 33483.46138 48761590.280748
vector 467 RSUExampleScenario.node[94].veinsmobility posx ETV
vector 468 RSUExampleScenario.node[94].veinsmobility posy ETV
vector 469 RSUExampleScenario.node[93].veinsmobility speed ETV
vector 470 RSUExampleScenario.node[95].veinsmobility posx ETV
vector 471 RSUExampleScenario.node[95].veinsmobility posy ETV
vector 472 RSUExampleScenario.node[93].veinsmobility acceleration ETV
vector 473 RSUExampleScenario.node[93].veinsmobility co2emission ETV
vector 474 RSUExampleScenario.node[94].veinsmobility speed ETV
48	89077 2379 12 9287 11 104 94 0.973 7.1259299794395 187.1977832855 539.39556492842
47	91456 2683 12 9287 11 104 94 -3.9653028164789 2.0681079823524 7.7510425578475 74.648806502377
44	94139 2509 11 9287 10 104 95 3.846408196245 11.605078509568 764.52115987529 6319.8537839007
36	96648 2539 10 9287 9 104 96 478.32523358161 872.2423577085 64994.257783633 45251530.391966
35	99187 2536 10 9287 9 104 96 1152.8244976044 1720.8034672382 134809.34632186 192332647.9704
vector 475 RSUExampleScenario.node[96].veinsmobility posx ETV
vector 476 RSUExampleScenario.node[96].veinsmobility posy ETV
vector 477 RSUExampleScenario.node[94].veinsmobility acceleration ETV
vector 478 RSUExampleScenario.node[94].veinsmobility co2emission ETV
vector 479 RSUExampleScenario.node[95].veinsmobility speed ETV
vector 480 RSUExampleScenario.node[97].veinsmobility posx ETV
vector 481 RSUExampleScenario.node[97].veinsmobility posy ETV
vector 482 RSUExampleScenario.node[95].veinsmobility acceleration ETV
vector 483 RSUExampleScenario.node[95].veinsmobility co2emission ETV
vector 484 RSUExampleScenario.node[96].veinsmobility speed ETV
vector 485 RSUExampleScenario.node[96].veinsmobility acceleration ETV
vector 486 RSUExampleScenario.node[96].veinsmobility co2emission ETV
vector 487 RSUExampleScenario.node[97].veinsmobility speed ETV
vector 488 RSUExampleScenario.node[97].veinsmobility acceleration ETV
vector 489 RSUExampleScenario.node[97].veinsmobility co2emission ETV
vector 490 RSUExampleScenario.node[98].veinsmobility posx ETV
vector 491 RSUExampleScenario.node[98].veinsmobility posy ETV
vector 492 RSUExampleScenario.node[99].veinsmobility posx ETV
vector 493 RSUExampleScenario.node[99].veinsmobility posy ETV
vector 494 RSUExampleScenario.node[98].veinsmobility speed ETV
276	103027 1390 4027 9294 61 110 50 0.973 4.7966143542908 83.823889766661 161.45233515816
275	104417 1526 4027 9294 61 110 50 -1.6686289599477 2.2237480995315 3.5498327423745 11.251112690689
274	105943 1432 4026 9294 60 110 51 4.0481674489173 7.6681853861968 378.87258308291 2833.5202166923
266	107375 1461 3730 9294 59 110 52 783.51524889271 1067.974696072 47310.543501034 43442038.098444
265	108836 1463 3730 9294 59 110 52 1360.7222853507 1494.227282971 74458.181059725 106690490.50154
vector 495 RSUExampleScenario.node[98].veinsmobility acceleration ETV
vector 496 RSUExampleScenario.node[98].veinsmobility co2emission ETV
vector 497 RSUExampleScenario.node[99].veinsmobility speed ETV
vector 498 RSUExampleScenario.node[100].veinsmobility posx ETV
vector 499 RSUExampleScenario.node[100].veinsmobility posy ETV
vector 500 RSUExampleScenario.node[99].veinsmobility acceleration ETV
vector 501 RSUExampleScenario.node[99].veinsmobility co2emission ETV
vector 502 RSUExampleScenario.node[101].veinsmobility posx ETV
vector 503 RSUExampleScenario.node[101].veinsmobility posy ETV
vector 504 RSUExampleScenario.node[100].veinsmobility speed ETV
vector 505 RSUExampleScenario.node[102].veinsmobility posx ETV
vector 506 RSUExampleScenario.node[102].veinsmobility posy ETV
vector 507 RSUExampleScenario.node[100].veinsmobility acceleration ETV
vector 508 RSUExampleScenario.node[100].veinsmobility co2emission ETV
vector 509 RSUExampleScenario.node[101].veinsmobility speed ETV
vector 510 RSUExampleScenario.node[103].veinsmobility posx ETV
vector 511 RSUExampleScenario.node[103].veinsmobility posy ETV
vector 512 RSUExampleScenario.node[101].veinsmobility acceleration ETV
vector 513 RSUExampleScenario.node[101].veinsmobility co2emission ETV
vector 514 RSUExampleScenario.node[102].veinsmobility speed ETV
68	111618 1982 17 9497 16 115 100 0.973 4.522097804283 128.05602200627 221.61264749037
67	113600 1947 17 9497 16 115 100 -4.4793582367695 2.2660952413015 0.74573876757901 73.744367527922
64	115547 1899 16 9497 15 115 101 0 7.7517257988272 174.38388824125 1187.2203755169
59	117446 2727 15 9497 14 115 102 896.01926388736 1042.3103001454 96254.308371808 91088684.121835
58	120173 2725 15 9497 14 115 102 1894.2443324168 1986.1014185975 199545.3984111 390476497.15533
vector 515 RSUExampleScenario.node[102].veinsmobility acceleration ETV
vector 516 RSUExampleScenario.node[102].veinsmobility co2emission ETV
vector 517 RSUExampleScenario.node[103].veinsmobility speed ETV
vector 518 RSUExampleScenario.node[104].veinsmobility posx ETV
vector 519 RSUExampleScenario.node[104].veinsmobility posy ETV
vector 520 RSUExampleScenario.node[103].veinsmobility acceleration ETV
vector 521 RSUExampleScenario.node[103].veinsmobility co2emission ETV
vector 522 RSUExampleScenario.node[105].veinsmobility posx ETV
vector 523 RSUExampleScenario.node[105].veinsmobility posy ETV
vector 524 RSUExampleScenario.node[106].veinsmobility posx ETV
vector 525 RSUExampleScenario.node[106].veinsmobility posy ETV
vector 526 RSUExampleScenario.node[104].veinsmobility speed ETV
vector 527 RSUExampleScenario.node[107].veinsmobility posx ETV
vector 528 RSUExampleScenario.node[107].veinsmobility posy ETV
vector 529 RSUExampleScenario.node[104].veinsmobility acceleration ETV
vector 530 RSUExampleScenario.node[104].veinsmobility co2emission ETV
vector 531 RSUExampleScenario.node[105].veinsmobility speed ETV
vector 532 RSUExampleScenario.node[106].veinsmobility speed ETV
173	124081 2253 1339 9942 38 119 82 0.973 4.7449398516283 139.09539917838 270.89542921668
172	126334 2494 1339 9942 38 119 82 -1.3408898864978 1.8899808023241 4.1065643732621 15.855140247173
169	128828 2336 1247 9942 37 119 83 4.059813807832 8.2129581407661 659.89120813355 5276.5873283863
164	131164 2366 1163 9942 36 119 84 829.8947202248 1055.9038023858 78793.734447797 74292994.601365
163	133530 2362 1163 9942 36 119 84 1733.0049772969 2165.4996839088 161169.99513947 310838769.49842
vector 533 RSUExampleScenario.node[105].veinsmobility acceleration ETV
vector 534 RSUExampleScenario.node[105].veinsmobility co2emission ETV
vector 535 RSUExampleScenario.node[106].veinsmobility acceleration ETV
vector 536 RSUExampleScenario.node[106].veinsmobility co2emission ETV
vector 537 RSUExampleScenario.node[107].veinsmobility speed ETV
vector 538 RSUExampleScenario.node[108].veinsmobility posx ETV
vector 539 RSUExampleScenario.node[108].veinsmobility posy ETV
vector 540 RSUExampleScenario.node[109].veinsmobility posx ETV
vector 541 RSUExampleScenario.node[109].veinsmobility posy ETV
vector 542 RSUExampleScenario.node[107].veinsmobility acceleration ETV
vector 543 RSUExampleScenario.node[107].veinsmobility co2emission ETV
vector 544 RSUExampleScenario.node[110].veinsmobility posx ETV
vector 545 RSUExampleScenario.node[110].veinsmobility posy ETV
vector 546 RSUExampleScenario.node[108].veinsmobility speed ETV
vector 547 RSUExampleScenario.node[109].veinsmobility speed ETV
vector 548 RSUExampleScenario.node[111].veinsmobility posx ETV
vector 549 RSUExampleScenario.node[111].veinsmobility posy ETV
vector 550 RSUExampleScenario.node[108].veinsmobility acceleration ETV
vector 551 RSUExampleScenario.node[108].veinsmobility co2emission ETV
vector 552 RSUExampleScenario.node[109].veinsmobility acceleration ETV
vector 553 RSUExampleScenario.node[109].veinsmobility co2emission ETV
vector 554 RSUExampleScenario.node[110].veinsmobility speed ETV
vector 555 RSUExampleScenario.node[110].veinsmobility acceleration ETV
vector 556 RSUExampleScenario.node[110].veinsmobility co2emission ETV
vector 557 RSUExampleScenario.node[111].veinsmobility speed ETV
268	137562 1698 3730 11968 59 124 66 0.973 6.2965573413925 131.14931123966 370.56214310067
267	139260 1835 3730 11968 59 124 66 -4.5 2.0691938205944 3.1271446462034 93.455762372104
264	141095 1763 3729 11968 58 124 67 0 10.576973006488 469.92396278027 4116.5082370291
256	142858 1928 3313 11968 57 124 68 508.08489523401 824.79623938745 43020.982369842 27949483.283406
255	144786 1925 3313 11968 57 124 68 1397.0289208657 1614.5865735334 102738.99253138 155580966.45555
vector 558 RSUExampleScenario.node[112].veinsmobility posx ETV
vector 559 RSUExampleScenario.node[112].veinsmobility posy ETV
vector 560 RSUExampleScenario.node[113].veinsmobility posx ETV
vector 561 RSUExampleScenario.node[113].veinsmobility posy ETV
vector 562 RSUExampleScenario.node[111].veinsmobility acceleration ETV
vector 563 RSUExampleScenario.node[111].veinsmobility co2emission ETV
203	147104 2259 2512 13979 44 125 82 0.973 5.5436524734683 135.37729369878 270.06372021547
202	149363 2493 2512 13979 44 125 82 -4.4695524245799 2.0795911543955 2.8485116517271 50.241240569748
199	151856 2334 2511 13979 43 125 83 0 9.3389604079611 559.74970286735 3952.6469965939
191	154190 2371 1872 13979 42 125 84 416.55228850413 727.9183229574 49729.946685464 30082414.856774
190	156561 2375 1872 13979 42 125 84 1180.8368719469 1600.8620162406 115850.38426357 161291119.02375
vector 564 RSUExampleScenario.node[112].veinsmobility speed ETV
vector 565 RSUExampleScenario.node[113].veinsmobility speed ETV
413	159064 965 7842 13980 89 126 38 0.973 6.3341430368072 80.255388348166 251.49670836591
412	160029 1030 7842 13980 89 126 38 -4.4206093910583 2.3056035573408 4.1871593769802 74.976598334829
409	161059 998 6984 13980 88 126 39 0 10.212013196861 244.33600570945 2221.0045179976
401	162057 1151 6983 13980 87 126 40 356.84499777815 505.84477671796 16907.088083618 7213007.3173024
400	163208 1149 6983 13980 87 126 40 1227.8044505514 1384.2987353963 50791.313612095 64598380.517878
vector 566 RSUExampleScenario.node[114].veinsmobility posx ETV
vector 567 RSUExampleScenario.node[114].veinsmobility posy ETV
vector 568 RSUExampleScenario.node[112].veinsmobility acceleration ETV
vector 569 RSUExampleScenario.node[112].veinsmobility co2emission ETV
vector 570 RSUExampleScenario.node[113].veinsmobility acceleration ETV
vector 571 RSUExampleScenario.node[113].veinsmobility co2emission ETV
vector 572 RSUExampleScenario.node[115].veinsmobility posx ETV
vector 573 RSUExampleScenario.node[115].veinsmobility posy ETV
vector 574 RSUExampleScenario.node[114].veinsmobility speed ETV
vector 575 RSUExampleScenario.node[116].veinsmobility posx ETV
vector 576 RSUExampleScenario.node[116].veinsmobility posy ETV
vector 577 RSUExampleScenario.node[114].veinsmobility acceleration ETV
vector 578 RSUExampleScenario.node[114].veinsmobility co2emission ETV
vector 579 RSUExampleScenario.node[115].veinsmobility speed ETV
28	165286 3110 8 16972 7 129 123 0.973 6.6166825885628 248.13644697775 702.07279255663
27	168396 3470 8 16972 7 129 123 -4.4849863153925 2.3690019971994 5.9111092782735 191.20321007277
24	171866 3246 7 16972 6 129 124 0 9.8063459838358 923.28192915913 7632.9700650495
16	175112 3337 6 16972 5 129 125 562.72867659991 1100.6456735074 97199.402379678 78921466.643454
15	178449 3334 6 16972 5 129 125 1480.9059979108 1799.9551050906 206689.3660611 342776218.22642
vector 580 RSUExampleScenario.node[117].veinsmobility posx ETV
vector 581 RSUExampleScenario.node[117].veinsmobility posy ETV
vector 582 RSUExampleScenario.node[115].veinsmobility acceleration ETV
vector 583 RSUExampleScenario.node[115].veinsmobility co2emission ETV
vector 584 RSUExampleScenario.node[116].veinsmobility speed ETV
138	182114 2472 31 16973 30 130 101 0.973 6.4809069407947 177.07186164559 474.37052813718
137	184586 2679 31 16973 30 130 101 -3.9450808073066 2.2715589471674 4.1816256025804 86.433350594821
132	187265 2563 30 16973 29 130 102 0 10.853280889995 578.38394662301 5549.6698608466
126	189828 2904 29 16973 28 130 103 679.3919074517 963.58557838594 85498.883476588 71547616.80776
125	192732 2910 29 16973 28 130 103 677.73238572324 960.15457024427 92064.497936857 83018850.927399
vector 585 RSUExampleScenario.node[118].veinsmobility posx ETV
vector 586 RSUExampleScenario.node[118].veinsmobility posy ETV
vector 587 RSUExampleScenario.node[116].veinsmobility acceleration ETV
vector 588 RSUExampleScenario.node[116].veinsmobility co2emission ETV
vector 589 RSUExampleScenario.node[117].veinsmobility speed ETV
vector 590 RSUExampleScenario.node[119].veinsmobility posx ETV
vector 591 RSUExampleScenario.node[119].veinsmobility posy ETV
vector 592 RSUExampleScenario.node[117].veinsmobility acceleration ETV
vector 593 RSUExampleScenario.node[117].veinsmobility co2emission ETV
vector 594 RSUExampleScenario.node[118].veinsmobility speed ETV
vector 595 RSUExampleScenario.node[120].veinsmobility posx ETV
vector 596 RSUExampleScenario.node[120].veinsmobility posy ETV
vector 597 RSUExampleScenario.node[118].veinsmobility acceleration ETV
vector 598 RSUExampleScenario.node[118].veinsmobility co2emission ETV
vector 599 RSUExampleScenario.node[119].veinsmobility speed ETV
vector 600 RSUExampleScenario.node[121].veinsmobility posx ETV
vector 601 RSUExampleScenario.node[121].veinsmobility posy ETV
vector 602 RSUExampleScenario.node[119].veinsmobility acceleration ETV
vector 603 RSUExampleScenario.node[119].veinsmobility co2emission ETV
vector 604 RSUExampleScenario.node[120].veinsmobility speed ETV
vector 605 RSUExampleScenario.node[122].veinsmobility posx ETV
vector 606 RSUExampleScenario.node[122].veinsmobility posy ETV
vector 607 RSUExampleScenario.node[120].veinsmobility acceleration ETV
vector 608 RSUExampleScenario.node[120].veinsmobility co2emission ETV
vector 609 RSUExampleScenario.node[121].veinsmobility speed ETV
461	197297 973 8664 17265 101 135 35 0.973 4.6237964241554 69.572745505064 179.72095243453
460	198270 1088 8664 17265 101 135 35 -4.4343677831006 2.367776534357 3.6551820394546 66.233906144859
459	199358 1040 8453 17265 100 135 36 0 7.5183413106454 225.67484585643 1560.6188623241
454	200398 1078 8452 17265 99 135 37 373.68803070813 525.55478960324 16100.977299834 7080980.7209282
453	201476 1081 8452 17265 99 135 37 1688.8144866072 1784.8771616808 64563.487224532 112690888.26013
vector 610 RSUExampleScenario.node[123].veinsmobility posx ETV
vector 611 RSUExampleScenario.node[123].veinsmobility posy ETV
vector 612 RSUExampleScenario.node[121].veinsmobility acceleration ETV
vector 613 RSUExampleScenario.node[121].veinsmobility co2emission ETV
vector 614 RSUExampleScenario.node[122].veinsmobility speed ETV
vector 615 RSUExampleScenario.node[124].veinsmobility posx ETV
vector 616 RSUExampleScenario.node[124].veinsmobility posy ETV
vector 617 RSUExampleScenario.node[122].veinsmobility acceleration ETV
vector 618 RSUExampleScenario.node[122].veinsmobility co2emission ETV
vector 619 RSUExampleScenario.node[123].veinsmobility speed ETV
vector 620 RSUExampleScenario.node[125].veinsmobility posx ETV
vector 621 RSUExampleScenario.node[125].veinsmobility posy ETV
vector 622 RSUExampleScenario.node[123].veinsmobility acceleration ETV
vector 623 RSUExampleScenario.node[123].veinsmobility co2emission ETV
vector 624 RSUExampleScenario.node[124].veinsmobility speed ETV
vector 625 RSUExampleScenario.node[126].veinsmobility posx ETV
vector 626 RSUExampleScenario.node[126].veinsmobility posy ETV
vector 627 RSUExampleScenario.node[124].veinsmobility acceleration ETV
vector 628 RSUExampleScenario.node[124].veinsmobility co2emission ETV
vector 629 RSUExampleScenario.node[125].veinsmobility speed ETV
193	203881 2356 1872 18583 42 139 98 0.973 6.3305244148967 153.59578578219 337.64075738992
192	206237 2407 1872 18583 42 139 98 -4.437758496274 2.432075096784 3.2887493796897 72.800445304258
189	208644 2290 1777 18583 41 139 99 0 9.7830211497639 512.89558646795 4584.990237012
181	210934 2855 1537 18583 40 139 100 839.0427509277 1126.9795171812 92577.322106223 86738022.816949
180	213789 2853 1537 18583 40 139 100 709.79288888005 959.81823557452 89954.664677635 81502154.296126
vector 630 RSUExampleScenario.node[127].veinsmobility posx ETV
vector 631 RSUExampleScenario.node[127].veinsmobility posy ETV
vector 632 RSUExampleScenario.node[125].veinsmobility acceleration ETV
vector 633 RSUExampleScenario.node[125].veinsmobility co2emission ETV
vector 634 RSUExampleScenario.node[126].veinsmobility speed ETV
vector 635 RSUExampleScenario.node[128].veinsmobility posx ETV
vector 636 RSUExampleScenario.node[128].veinsmobility posy ETV
vector 637 RSUExampleScenario.node[126].veinsmobility acceleration ETV
vector 638 RSUExampleScenario.node[126].veinsmobility co2emission ETV
vector 639 RSUExampleScenario.node[127].veinsmobility speed ETV
vector 640 RSUExampleScenario.node[129].veinsmobility posx ETV
vector 641 RSUExampleScenario.node[129].veinsmobility posy ETV
vector 642 RSUExampleScenario.node[127].veinsmobility acceleration ETV
vector 643 RSUExampleScenario.node[127].veinsmobility co2emission ETV
vector 644 RSUExampleScenario.node[128].veinsmobility speed ETV
vector 645 RSUExampleScenario.node[130].veinsmobility posx ETV
vector 646 RSUExampleScenario.node[130].veinsmobility posy ETV
vector 647 RSUExampleScenario.node[128].veinsmobility acceleration ETV
vector 648 RSUExampleScenario.node[128].veinsmobility co2emission ETV
vector 649 RSUExampleScenario.node[129].veinsmobility speed ETV
vector 650 RSUExampleScenario.node[131].veinsmobility posx ETV
vector 651 RSUExampleScenario.node[131].veinsmobility posy ETV
vector 652 RSUExampleScenario.node[129].veinsmobility acceleration ETV
vector 653 RSUExampleScenario.node[129].veinsmobility co2emission ETV
vector 654 RSUExampleScenario.node[130].veinsmobility speed ETV
vector 655 RSUExampleScenario.node[132].veinsmobility posx ETV
vector 656 RSUExampleScenario.node[132].veinsmobility posy ETV
vector 657 RSUExampleScenario.node[130].veinsmobility acceleration ETV
vector 658 RSUExampleScenario.node[130].veinsmobility co2emission ETV
vector 659 RSUExampleScenario.node[131].veinsmobility speed ETV
vector 660 RSUExampleScenario.node[133].veinsmobility posx ETV
vector 661 RSUExampleScenario.node[133].veinsmobility posy ETV
vector 662 RSUExampleScenario.node[131].veinsmobility acceleration ETV
vector 663 RSUExampleScenario.node[131].veinsmobility co2emission ETV
vector 664 RSUExampleScenario.node[132].veinsmobility speed ETV
vector 665 RSUExampleScenario.node[134].veinsmobility posx ETV
vector 666 RSUExampleScenario.node[134].veinsmobility posy ETV
vector 667 RSUExampleScenario.node[132].veinsmobility acceleration ETV
vector 668 RSUExampleScenario.node[132].veinsmobility co2emission ETV
vector 669 RSUExampleScenario.node[133].veinsmobility speed ETV
vector 670 RSUExampleScenario.node[135].veinsmobility posx ETV
vector 671 RSUExampleScenario.node[135].veinsmobility posy ETV
vector 672 RSUExampleScenario.node[133].veinsmobility acceleration ETV
vector 673 RSUExampleScenario.node[133].veinsmobility co2emission ETV
vector 674 RSUExampleScenario.node[134].veinsmobility speed ETV
vector 675 RSUExampleScenario.node[136].veinsmobility posx ETV
vector 676 RSUExampleScenario.node[136].veinsmobility posy ETV
vector 677 RSUExampleScenario.node[134].veinsmobility acceleration ETV
vector 678 RSUExampleScenario.node[134].veinsmobility co2emission ETV
vector 679 RSUExampleScenario.node[135].veinsmobility speed ETV
vector 680 RSUExampleScenario.node[135].veinsmobility acceleration ETV
vector 681 RSUExampleScenario.node[135].veinsmobility co2emission ETV
vector 682 RSUExampleScenario.node[136].veinsmobility speed ETV
263	220157 2593 3729 19195 58 150 93 0.973 6.7121813192471 186.66393683907 497.84160000294
262	222750 2877 3729 19195 58 150 93 -4.4441926155217 2.1148191310023 4.9867434909485 62.323187819004
259	225627 2704 3313 19195 57 150 94 4.2581227833976 12.327864929997 866.96695361809 8159.618033721
251	228331 2725 3312 19195 56 150 95 306.84786664465 520.9367645266 39824.505059356 17020085.10697
250	231056 2726 3312 19195 56 150 95 728.33931981699 1256.1510033125 90240.984313617 88364162.48488
vector 683 RSUExampleScenario.node[137].veinsmobility posx ETV
vector 684 RSUExampleScenario.node[137].veinsmobility posy ETV
vector 685 RSUExampleScenario.node[136].veinsmobility acceleration ETV
vector 686 RSUExampleScenario.node[136].veinsmobility co2emission ETV
373	234049 1974 5155 19196 81 151 71 0.973 6.1036335812371 125.07508752485 290.57364938623
372	236023 2182 5155 19196 81 151 71 -4.4360871735507 2.1464264790993 5.5027673318852 54.954268950658
369	238205 2061 4988 19196 80 151 72 0 10.095872811249 484.53869759394 3494.5531612534
361	240266 2122 4987 19196 79 151 73 491.04242826828 714.46276026695 45427.232205875 28526960.85246
360	242388 2115 4987 19196 79 151 73 1155.8279447113 1460.1400049859 96207.08369263 127539712.19672
vector 687 RSUExampleScenario.node[137].veinsmobility speed ETV
598	244567 600 16976 20435 133 152 20 1.4350705048146 5.2400406189097 40.250313960647 102.05799479006
597	245167 645 16976 20435 133 152 20 -0.075758492071182 2.0239167631743 4.8961785451668 8.365671190528
594	245812 627 16975 20435 132 152 21 3.95819580163 8.8638146309493 175.77623810342 1502.4715903872
586	246439 656 16974 20435 131 152 22 585.25987370332 704.6835584592 13933.433163624 8853401.7810295
585	247095 659 16974 20435 131 152 22 1353.4427274165 1460.3316103852 31130.357168149 44079865.055294
vector 688 RSUExampleScenario.node[138].veinsmobility posx ETV
vector 689 RSUExampleScenario.node[138].veinsmobility posy ETV
vector 690 RSUExampleScenario.node[137].veinsmobility acceleration ETV
vector 691 RSUExampleScenario.node[137].veinsmobility co2emission ETV
218	248021 2854 3179 20436 47 153 107 0.973 4.5907015679411 164.88583193459 306.43710870724
217	250875 3126 3179 20436 47 153 107 -3.9593960486932 2.0499242836857 0.60982791390509 72.525347551631
214	254001 2938 3065 20436 46 153 108 0 7.5644794744751 570.90451516084 4130.6751157159
206	256939 3126 3064 20436 45 153 109 664.62983951212 1014.8757525981 87857.01585067 72210688.198037
205	260065 3128 3064 20436 45 153 109 1552.2544531057 1919.3159600896 183129.03726787 309102145.74645
vector 692 RSUExampleScenario.node[139].veinsmobility posx ETV
vector 693 RSUExampleScenario.node[139].veinsmobility posy ETV
vector 694 RSUExampleScenario.node[140].veinsmobility posx ETV
vector 695 RSUExampleScenario.node[140].veinsmobility posy ETV
vector 696 RSUExampleScenario.node[138].veinsmobility speed ETV
vector 697 RSUExampleScenario.node[141].veinsmobility posx ETV
vector 698 RSUExampleScenario.node[141].veinsmobility posy ETV
vector 699 RSUExampleScenario.node[138].veinsmobility acceleration ETV
vector 700 RSUExampleScenario.node[138].veinsmobility co2emission ETV
vector 701 RSUExampleScenario.node[139].veinsmobility speed ETV
vector 702 RSUExampleScenario.node[140].veinsmobility speed ETV
vector 703 RSUExampleScenario.node[142].veinsmobility posx ETV
vector 704 RSUExampleScenario.node[142].veinsmobility posy ETV
vector 705 RSUExampleScenario.node[139].veinsmobility acceleration ETV
vector 706 RSUExampleScenario.node[139].veinsmobility co2emission ETV
vector 707 RSUExampleScenario.node[140].veinsmobility acceleration ETV
vector 708 RSUExampleScenario.node[140].veinsmobility co2emission ETV
vector 709 RSUExampleScenario.node[141].veinsmobility speed ETV
vector 710 RSUExampleScenario.node[143].veinsmobility posx ETV
vector 711 RSUExampleScenario.node[143].veinsmobility posy ETV
vector 712 RSUExampleScenario.node[141].veinsmobility acceleration ETV
vector 713 RSUExampleScenario.node[141].veinsmobility co2emission ETV
vector 714 RSUExampleScenario.node[142].veinsmobility speed ETV
vector 715 RSUExampleScenario.node[144].veinsmobility posx ETV
vector 716 RSUExampleScenario.node[144].veinsmobility posy ETV
vector 717 RSUExampleScenario.node[142].veinsmobility acceleration ETV
vector 718 RSUExampleScenario.node[142].veinsmobility co2emission ETV
vector 719 RSUExampleScenario.node[143].veinsmobility speed ETV
vector 720 RSUExampleScenario.node[145].veinsmobility posx ETV
vector 721 RSUExampleScenario.node[145].veinsmobility posy ETV
vector 722 RSUExampleScenario.node[143].veinsmobility acceleration ETV
vector 723 RSUExampleScenario.node[143].veinsmobility co2emission ETV
vector 724 RSUExampleScenario.node[144].veinsmobility speed ETV
vector 725 RSUExampleScenario.node[144].veinsmobility acceleration ETV
vector 726 RSUExampleScenario.node[144].veinsmobility co2emission ETV
vector 727 RSUExampleScenario.node[145].veinsmobility speed ETV
vector 728 RSUExampleScenario.node[146].veinsmobility posx ETV
vector 729 RSUExampleScenario.node[146].veinsmobility posy ETV
vector 730 RSUExampleScenario.node[147].veinsmobility posx ETV
vector 731 RSUExampleScenario.node[147].veinsmobility posy ETV
vector 732 RSUExampleScenario.node[145].veinsmobility acceleration ETV
vector 733 RSUExampleScenario.node[145].veinsmobility co2emission ETV
vector 734 RSUExampleScenario.node[148].veinsmobility posx ETV
vector 735 RSUExampleScenario.node[148].veinsmobility posy ETV
vector 736 RSUExampleScenario.node[146].veinsmobility speed ETV
vector 737 RSUExampleScenario.node[147].veinsmobility speed ETV
vector 738 RSUExampleScenario.node[149].veinsmobility posx ETV
vector 739 RSUExampleScenario.node[149].veinsmobility posy ETV
vector 740 RSUExampleScenario.node[146].veinsmobility acceleration ETV
vector 741 RSUExampleScenario.node[146].veinsmobility co2emission ETV
vector 742 RSUExampleScenario.node[147].veinsmobility acceleration ETV
vector 743 RSUExampleScenario.node[147].veinsmobility co2emission ETV
vector 744 RSUExampleScenario.node[148].veinsmobility speed ETV
vector 745 RSUExampleScenario.node[150].veinsmobility posx ETV
vector 746 RSUExampleScenario.node[150].veinsmobility posy ETV
vector 747 RSUExampleScenario.node[148].veinsmobility acceleration ETV
vector 748 RSUExampleScenario.node[148].veinsmobility co2emission ETV
vector 749 RSUExampleScenario.node[149].veinsmobility speed ETV
vector 750 RSUExampleScenario.node[149].veinsmobility acceleration ETV
vector 751 RSUExampleScenario.node[149].veinsmobility co2emission ETV
vector 752 RSUExampleScenario.node[150].veinsmobility speed ETV
vector 753 RSUExampleScenario.node[151].veinsmobility posx ETV
vector 754 RSUExampleScenario.node[151].veinsmobility posy ETV
vector 755 RSUExampleScenario.node[150].veinsmobility acceleration ETV
vector 756 RSUExampleScenario.node[150].veinsmobility co2emission ETV
vector 757 RSUExampleScenario.node[152].veinsmobility posx ETV
vector 758 RSUExampleScenario.node[152].veinsmobility posy ETV
vector 759 RSUExampleScenario.node[151].veinsmobility speed ETV
13	267686 3971 5 29613 4 167 164 0.973 6.4849205519166 279.43202961618 639.84795795238
12	271657 4177 5 29613 4 167 164 -4.4494065384749 2.3252709375159 4.3724028009844 145.48438567689
9	275834 3738 4 29613 3 167 165 0 11.646062122423 1053.4214292776 9524.697979836
3	279572 4313 3 29613 2 167 166 630.68509478059 1207.5011382286 165837.01316751 171208910.74721
2	283885 4332 3 29613 2 167 166 1047.2305357661 1546.7779592722 223735.34228036 303780774.96132
vector 760 RSUExampleScenario.node[153].veinsmobility posx ETV
vector 761 RSUExampleScenario.node[153].veinsmobility posy ETV
vector 762 RSUExampleScenario.node[151].veinsmobility acceleration ETV
vector 763 RSUExampleScenario.node[151].veinsmobility co2emission ETV
vector 764 RSUExampleScenario.node[152].veinsmobility speed ETV
166	288548 3655 1163 29614 36 168 133 0.973 4.3759431264404 206.92233431598 371.96785364106
165	292203 4081 1163 29614 36 168 133 -3.1373527086247 1.9562015765375 2.9987512012875 52.529117030827
162	296284 3835 664 29614 35 168 134 0 7.0193219163776 763.28180537977 5095.9972016582
156	300119 3880 663 29614 34 168 135 629.08063992452 960.90304878261 105181.64498484 83132422.935019
155	303999 3884 663 29614 34 168 135 1265.4195815248 1510.2780158042 190137.24278859 268495454.62515
vector 765 RSUExampleScenario.node[154].veinsmobility posx ETV
vector 766 RSUExampleScenario.node[154].veinsmobility posy ETV
vector 767 RSUExampleScenario.node[152].veinsmobility acceleration ETV
vector 768 RSUExampleScenario.node[152].veinsmobility co2emission ETV
vector 769 RSUExampleScenario.node[153].veinsmobility speed ETV
vector 770 RSUExampleScenario.node[155].veinsmobility posx ETV
vector 771 RSUExampleScenario.node[155].veinsmobility posy ETV
vector 772 RSUExampleScenario.node[153].veinsmobility acceleration ETV
vector 773 RSUExampleScenario.node[153].veinsmobility co2emission ETV
vector 774 RSUExampleScenario.node[154].veinsmobility speed ETV
383	308545 2254 5499 30794 83 170 88 0.973 8.4113495704062 191.06698819509 697.14098665252
382	310799 2434 5499 30794 83 170 88 -4.4902080255654 2.1039759998419 6.1289590520999 134.37137075393
379	313233 2359 5156 30794 82 170 89 0 13.501363080566 562.56135473096 6131.5692771306
371	315592 2634 5155 30794 81 170 90 329.31804502223 708.75077237052 42752.811003543 21595845.457389
370	318226 2632 5155 30794 81 170 90 1101.7549072792 1213.8987437913 105574.06759842 123949632.0214
vector 775 RSUExampleScenario.node[156].veinsmobility posx ETV
vector 776 RSUExampleScenario.node[156].veinsmobility posy ETV
vector 777 RSUExampleScenario.node[154].veinsmobility acceleration ETV
vector 778 RSUExampleScenario.node[154].veinsmobility co2emission ETV
vector 779 RSUExampleScenario.node[155].veinsmobility speed ETV
vector 780 RSUExampleScenario.node[157].veinsmobility posx ETV
vector 781 RSUExampleScenario.node[157].veinsmobility posy ETV
vector 782 RSUExampleScenario.node[155].veinsmobility acceleration ETV
vector 783 RSUExampleScenario.node[155].veinsmobility co2emission ETV
vector 784 RSUExampleScenario.node[156].veinsmobility speed ETV
vector 785 RSUExampleScenario.node[158].veinsmobility posx ETV
vector 786 RSUExampleScenario.node[158].veinsmobility posy ETV
vector 787 RSUExampleScenario.node[156].veinsmobility acceleration ETV
vector 788 RSUExampleScenario.node[156].veinsmobility co2emission ETV
vector 789 RSUExampleScenario.node[157].veinsmobility speed ETV
vector 790 RSUExampleScenario.node[159].veinsmobility posx ETV
vector 791 RSUExampleScenario.node[159].veinsmobility posy ETV
vector 792 RSUExampleScenario.node[157].veinsmobility acceleration ETV
vector 793 RSUExampleScenario.node[157].veinsmobility co2emission ETV
vector 794 RSUExampleScenario.node[158].veinsmobility speed ETV
vector 795 RSUExampleScenario.node[158].veinsmobility acceleration ETV
vector 796 RSUExampleScenario.node[158].veinsmobility co2emission ETV
vector 797 RSUExampleScenario.node[159].veinsmobility speed ETV
vector 798 RSUExampleScenario.node[159].veinsmobility acceleration ETV
vector 799 RSUExampleScenario.node[159].veinsmobility co2emission ETV
113	322528 3635 26 31544 25 176 152 0.973 5.6176124656997 226.37501549471 457.35725472284
112	326163 3784 26 31544 25 176 152 -4.5 2.4149845020237 3.3685559030943 126.31160810685
109	329947 3608 25 31544 24 176 153 0 9.8209935877258 590.80907790775 4523.5387379654
101	333555 4410 24 31544 23 176 154 456.50781805936 762.85397758199 88906.099633382 52440452.987435
100	337965 4407 24 31544 23 176 154 1526.2317443633 1911.7696947536 258874.79252605 436292678.68308
vector 800 RSUExampleScenario.node[160].veinsmobility posx ETV
vector 801 RSUExampleScenario.node[160].veinsmobility posy ETV
vector 802 RSUExampleScenario.node[161].veinsmobility posx ETV
vector 803 RSUExampleScenario.node[161].veinsmobility posy ETV
vector 804 RSUExampleScenario.node[160].veinsmobility speed ETV
vector 805 RSUExampleScenario.node[162].veinsmobility posx ETV
vector 806 RSUExampleScenario.node[162].veinsmobility posy ETV
vector 807 RSUExampleScenario.node[160].veinsmobility acceleration ETV
vector 808 RSUExampleScenario.node[160].veinsmobility co2emission ETV
vector 809 RSUExampleScenario.node[161].veinsmobility speed ETV
vector 810 RSUExampleScenario.node[161].veinsmobility acceleration ETV
vector 811 RSUExampleScenario.node[161].veinsmobility co2emission ETV
vector 812 RSUExampleScenario.node[162].veinsmobility speed ETV
vector 813 RSUExampleScenario.node[163].veinsmobility posx ETV
vector 814 RSUExampleScenario.node[163].veinsmobility posy ETV
vector 815 RSUExampleScenario.node[162].veinsmobility acceleration ETV
vector 816 RSUExampleScenario.node[162].veinsmobility co2emission ETV
vector 817 RSUExampleScenario.node[164].veinsmobility posx ETV
vector 818 RSUExampleScenario.node[164].veinsmobility posy ETV
vector 819 RSUExampleScenario.node[163].veinsmobility speed ETV
vector 820 RSUExampleScenario.node[165].veinsmobility posx ETV
vector 821 RSUExampleScenario.node[165].veinsmobility posy ETV
vector 822 RSUExampleScenario.node[163].veinsmobility acceleration ETV
vector 823 RSUExampleScenario.node[163].veinsmobility co2emission ETV
vector 824 RSUExampleScenario.node[164].veinsmobility speed ETV
vector 825 RSUExampleScenario.node[164].veinsmobility acceleration ETV
vector 826 RSUExampleScenario.node[164].veinsmobility co2emission ETV
vector 827 RSUExampleScenario.node[165].veinsmobility speed ETV
vector 828 RSUExampleScenario.node[166].veinsmobility posx ETV
vector 829 RSUExampleScenario.node[166].veinsmobility posy ETV
vector 830 RSUExampleScenario.node[165].veinsmobility acceleration ETV
vector 831 RSUExampleScenario.node[165].veinsmobility co2emission ETV
vector 832 RSUExampleScenario.node[167].veinsmobility posx ETV
vector 833 RSUExampleScenario.node[167].veinsmobility posy ETV
vector 834 RSUExampleScenario.node[168].veinsmobility posx ETV
vector 835 RSUExampleScenario.node[168].veinsmobility posy ETV
vector 836 RSUExampleScenario.node[166].veinsmobility speed ETV
vector 837 RSUExampleScenario.node[166].veinsmobility acceleration ETV
vector 838 RSUExampleScenario.node[166].veinsmobility co2emission ETV
vector 839 RSUExampleScenario.node[167].veinsmobility speed ETV
vector 840 RSUExampleScenario.node[168].veinsmobility speed ETV
vector 841 RSUExampleScenario.node[169].veinsmobility posx ETV
vector 842 RSUExampleScenario.node[169].veinsmobility posy ETV
vector 843 RSUExampleScenario.node[167].veinsmobility acceleration ETV
vector 844 RSUExampleScenario.node[167].veinsmobility co2emission ETV
vector 845 RSUExampleScenario.node[168].veinsmobility acceleration ETV
vector 846 RSUExampleScenario.node[168].veinsmobility co2emission ETV
vector 847 RSUExampleScenario.node[170].veinsmobility posx ETV
vector 848 RSUExampleScenario.node[170].veinsmobility posy ETV
vector 849 RSUExampleScenario.node[169].veinsmobility speed ETV
vector 850 RSUExampleScenario.node[169].veinsmobility acceleration ETV
vector 851 RSUExampleScenario.node[169].veinsmobility co2emission ETV
vector 852 RSUExampleScenario.node[170].veinsmobility speed ETV
vector 853 RSUExampleScenario.node[170].veinsmobility acceleration ETV
vector 854 RSUExampleScenario.node[170].veinsmobility co2emission ETV
vector 855 RSUExampleScenario.node[171].veinsmobility posx ETV
vector 856 RSUExampleScenario.node[171].veinsmobility posy ETV
783	346139 630 31167 32193 172 193 22 0.973 6.6158934481014 53.174353513112 190.95595514273
782	346769 693 31167 32193 172 193 22 -4.1400220298213 2.0506530885631 4.0129987900995 39.352398077661
779	347462 689 31166 32193 171 193 23 4.0575563673017 10.809721056354 182.24179573268 1480.195949604
771	348151 718 30794 32193 170 193 24 561.71749586514 674.45676870122 14929.281518024 9314850.200904
770	348869 719 30794 32193 170 193 24 1102.2724724029 1216.519103788 27545.6389395 31646342.346878
vector 857 RSUExampleScenario.node[172].veinsmobility posx ETV
vector 858 RSUExampleScenario.node[172].veinsmobility posy ETV
vector 859 RSUExampleScenario.node[171].veinsmobility speed ETV
418	349778 2599 7843 32194 90 194 105 0.59391804927428 13.271342307672 239.82574048943 1110.2180689833
417	352377 2611 7843 32194 90 194 105 -4.5 2.3435576951993 5.5733214158109 232.41477958455
414	354988 2570 7842 32194 89 194 106 0 20.206127192568 628.29776057159 6965.6290081713
406	357558 3155 6984 32194 88 194 107 766.70088366865 981.5939194842 91742.483627492 78929062.479044
405	360713 3158 6984 32194 88 194 107 712.49563298195 1146.0364167745 92494.11475782 81749251.231477
vector 860 RSUExampleScenario.node[171].veinsmobility acceleration ETV
vector 861 RSUExampleScenario.node[171].veinsmobility co2emission ETV
vector 862 RSUExampleScenario.node[172].veinsmobility speed ETV
vector 863 RSUExampleScenario.node[173].veinsmobility posx ETV
vector 864 RSUExampleScenario.node[173].veinsmobility posy ETV
vector 865 RSUExampleScenario.node[174].veinsmobility posx ETV
vector 866 RSUExampleScenario.node[174].veinsmobility posy ETV
vector 867 RSUExampleScenario.node[172].veinsmobility acceleration ETV
vector 868 RSUExampleScenario.node[172].veinsmobility co2emission ETV
vector 869 RSUExampleScenario.node[175].veinsmobility posx ETV
vector 870 RSUExampleScenario.node[175].veinsmobility posy ETV
vector 871 RSUExampleScenario.node[173].veinsmobility speed ETV
vector 872 RSUExampleScenario.node[174].veinsmobility speed ETV
726	364723 1117 25258 32198 160 197 38 0.973 4.7742687609774 72.805571447712 170.39044510913
725	365840 1203 25258 32198 160 197 38 -1.66 2.0573261017865 5.0188469894381 13.32848888189
724	367043 1165 24641 32198 159 197 39 4.0816621120571 9.1543247655901 342.5134920244 3044.282465046
716	368208 1195 24359 32198 158 197 40 511.16106979764 708.17511609228 24641.885483481 15310291.927382
715	369403 1192 24359 32198 158 197 40 1344.8221274936 1568.1052635464 57332.241696513 82371031.547133
363	370595 3417 4987 32198 79 197 119 0.973 6.265922185398 193.73070742143 381.52754793032
362	374012 3773 4987 32198 79 197 119 -1.7317465499094 2.1779719077097 5.9735563537227 24.006998726852
359	377785 3520 4986 32198 78 197 120 4.0982231091409 10.071779462864 850.4087291841 6102.3945058838
351	381305 3546 4985 32198 77 197 121 923.35777056122 1260.2753202616 129895.71709474 140530056.55044
350	384851 3547 4985 32198 77 197 121 1329.7473422734 1992.9962771362 199282.64761545 332855630.02213
vector 873 RSUExampleScenario.node[176].veinsmobility posx ETV
vector 874 RSUExampleScenario.node[176].veinsmobility posy ETV
vector 875 RSUExampleScenario.node[173].veinsmobility acceleration ETV
vector 876 RSUExampleScenario.node[173].veinsmobility co2emission ETV
vector 877 RSUExampleScenario.node[174].veinsmobility acceleration ETV
vector 878 RSUExampleScenario.node[174].veinsmobility co2emission ETV
vector 879 RSUExampleScenario.node[175].veinsmobility speed ETV
vector 880 RSUExampleScenario.node[177].veinsmobility posx ETV
vector 881 RSUExampleScenario.node[177].veinsmobility posy ETV
vector 882 RSUExampleScenario.node[175].veinsmobility acceleration ETV
vector 883 RSUExampleScenario.node[175].veinsmobility co2emission ETV
vector 884 RSUExampleScenario.node[176].veinsmobility speed ETV
vector 885 RSUExampleScenario.node[178].veinsmobility posx ETV
vector 886 RSUExampleScenario.node[178].veinsmobility posy ETV
vector 887 RSUExampleScenario.node[176].veinsmobility acceleration ETV
vector 888 RSUExampleScenario.node[176].veinsmobility co2emission ETV
vector 889 RSUExampleScenario.node[177].veinsmobility speed ETV
213	389532 3798 3065 32604 46 200 155 0.973 5.1889397605449 231.80896134778 453.85626809737
212	393330 3828 3065 32604 46 200 155 -4.4367871562888 2.3492766334361 4.4218349793831 101.70653390611
209	397158 3630 3064 32604 45 200 156 0 8.3951118904783 703.58887712259 5662.4667976662
201	400788 4572 2512 32604 44 200 157 822.30486504494 1099.7927082861 161904.93576002 167999986.48028
200	405360 4564 2512 32604 44 200 157 1521.8219307849 1885.3664818507 280019.00332456 500789771.77556
623	409924 1539 18080 32604 138 200 63 0.973 5.8630190974108 109.16457983554 301.47606540333
622	411463 1524 18080 32604 138 200 63 -4.4354701784411 2.2270681564496 5.2142917421186 80.177146122849
619	412987 1484 18079 32604 137 200 64 0 9.3991678662693 257.90721144986 2183.8476580179
611	414471 1940 17266 32604 136 200 65 531.707119323 626.43916467327 37189.219135105 21303895.948388
610	416411 1945 17266 32604 136 200 65 954.19944993985 1086.4654578272 63887.71387377 62866162.796454
vector 890 RSUExampleScenario.node[179].veinsmobility posx ETV
vector 891 RSUExampleScenario.node[179].veinsmobility posy ETV
vector 892 RSUExampleScenario.node[177].veinsmobility acceleration ETV
vector 893 RSUExampleScenario.node[177].veinsmobility co2emission ETV
vector 894 RSUExampleScenario.node[178].veinsmobility speed ETV
vector 895 RSUExampleScenario.node[180].veinsmobility posx ETV
vector 896 RSUExampleScenario.node[180].veinsmobility posy ETV
vector 897 RSUExampleScenario.node[178].veinsmobility acceleration ETV
vector 898 RSUExampleScenario.node[178].veinsmobility co2emission ETV
vector 899 RSUExampleScenario.node[179].veinsmobility speed ETV
vector 900 RSUExampleScenario.node[181].veinsmobility posx ETV
vector 901 RSUExampleScenario.node[181].veinsmobility posy ETV
vector 902 RSUExampleScenario.node[179].veinsmobility acceleration ETV
vector 903 RSUExampleScenario.node[179].veinsmobility co2emission ETV
vector 904 RSUExampleScenario.node[180].veinsmobility speed ETV
vector 905 RSUExampleScenario.node[182].veinsmobility posx ETV
vector 906 RSUExampleScenario.node[182].veinsmobility posy ETV
vector 907 RSUExampleScenario.node[180].veinsmobility acceleration ETV
vector 908 RSUExampleScenario.node[180].veinsmobility co2emission ETV
vector 909 RSUExampleScenario.node[181].veinsmobility speed ETV
vector 910 RSUExampleScenario.node[183].veinsmobility posx ETV
vector 911 RSUExampleScenario.node[183].veinsmobility posy ETV
vector 912 RSUExampleScenario.node[181].veinsmobility acceleration ETV
vector 913 RSUExampleScenario.node[181].veinsmobility co2emission ETV
vector 914 RSUExampleScenario.node[182].veinsmobility speed ETV
vector 915 RSUExampleScenario.node[184].veinsmobility posx ETV
vector 916 RSUExampleScenario.node[184].veinsmobility posy ETV
vector 917 RSUExampleScenario.node[185].veinsmobility posx ETV
vector 918 RSUExampleScenario.node[185].veinsmobility posy ETV
vector 919 RSUExampleScenario.node[182].veinsmobility acceleration ETV
vector 920 RSUExampleScenario.node[182].veinsmobility co2emission ETV
vector 921 RSUExampleScenario.node[183].veinsmobility speed ETV
vector 922 RSUExampleScenario.node[186].veinsmobility posx ETV
vector 923 RSUExampleScenario.node[186].veinsmobility posy ETV
vector 924 RSUExampleScenario.node[183].veinsmobility acceleration ETV
vector 925 RSUExampleScenario.node[183].veinsmobility co2emission ETV
vector 926 RSUExampleScenario.node[184].veinsmobility speed ETV
vector 927 RSUExampleScenario.node[185].veinsmobility speed ETV
108	420863 4476 25 33750 24 207 184 0.973 7.1952150023626 334.53812830197 931.68466078289
107	425339 4788 25 33750 24 207 184 -4.5 2.2876124443662 6.9924370878976 198.58090709154
104	430127 4602 24 33750 23 207 185 0 10.941573922956 967.90310740703 8790.9904950723
96	434729 5181 23 33750 22 207 186 628.86843203584 1183.8263375609 169122.95039238 157702544.80228
95	439910 5175 23 33750 22 207 186 1041.5179830938 1510.286535993 218054.74155825 258254536.48917
vector 928 RSUExampleScenario.node[187].veinsmobility posx ETV
vector 929 RSUExampleScenario.node[187].veinsmobility posy ETV
vector 930 RSUExampleScenario.node[184].veinsmobility acceleration ETV
vector 931 RSUExampleScenario.node[184].veinsmobility co2emission ETV
vector 932 RSUExampleScenario.node[185].veinsmobility acceleration ETV
vector 933 RSUExampleScenario.node[185].veinsmobility co2emission ETV
vector 934 RSUExampleScenario.node[186].veinsmobility speed ETV
[...]
870	2940239 1222 32198 47955 197 237 41 186.32598086644 339.56128893447 10710.259501918 2885403.9961508
871	2941461 1226 32198 47955 197 237 41 2.8125883404745 9.0543125119174 347.99999472485 3012.310683658
872	2942687 1227 32198 47955 197 237 41 3.0993121612994 8.4904130346997 331.11612325328 2717.8543274483
873	2943914 1195 32199 47955 198 237 40 1357.5372479629 1401.2286562868 55839.34998173 77954316.601012
874	2945109 1199 32199 47955 198 237 40 483.1841004002 513.26846999114 20419.569652122 10425935.132398
875	2946308 1283 32199 47955 198 237 40 -2.462315221066 2.3217512379284 6.2174887869367 23.687235729681
876	2947591 1187 32199 47955 198 237 40 0.973 6.5524387391438 78.604168452129 206.89413127488
877	2948778 1284 32199 47955 198 237 40 -1.566317235807 1.8517924899678 5.3288406232561 17.213068548183
878	2950062 1158 32199 47955 198 237 40 0.973 5.2452308411852 75.442172953454 180.50208847836
879	2951220 1195 32199 47955 198 237 40 4.0051233242826 7.5063541604227 292.92398048468 2158.1982746369
880	2952415 1164 32201 47955 199 237 39 1684.5431971099 1792.0156024704 68537.478292355 120502741.26759
881	2953579 1163 32201 47955 199 237 39 782.8241905365 951.64896772661 32632.716350621 27445288.18809
882	2954742 1265 32201 47955 199 237 39 -0.092169063149486 2.1000575535302 3.3813150371095 6.4033045672573
883	2956007 1163 32201 47955 199 237 39 1.3393921497142 4.5154523715928 64.108776626623 120.21632778692
884	2957170 753 32201 47955 199 237 39 0 10.131659828642 60.161305479646 492.73740996804
885	2957923 1136 32604 47955 200 237 38 2127.1683991539 2222.3932523631 82114.746777111 177485673.1444
886	2959059 1136 32604 47955 200 237 38 507.8567959141 662.9822160152 23121.667045138 14181227.638858
887	2960195 744 32604 47955 200 237 38 -0.50074761914672 2.0601136834118 8.9906724524142 17.280301140371
888	2960939 829 32604 47955 200 237 38 0.973 6.000793230792 54.559436127757 129.61362136695
889	2961768 1126 32604 47955 200 237 38 0 9.9628442803049 199.27624562055 1790.7240683532
890	2962894 1109 32605 47955 201 237 37 1635.5625869799 1848.2677722623 64104.649563357 111248065.11313
891	2964003 1104 32605 47955 201 237 37 1003.5062267148 1170.337534109 40508.967085135 44438838.02083
892	2965107 1149 32605 47955 201 237 37 -2.8270088107607 2.1906779367407 -4.1477033913475 35.532010121286
893	2966256 987 32605 47955 201 237 37 0.973 6.6046837399564 64.322193292231 175.10760170745
894	2967243 1136 32605 47955 201 237 37 1.9261452147299e-05 7.7607095437659 180.62457687383 1320.2513785621
895	2968379 1077 33348 47955 202 237 36 1227.8791456075 1366.4690645733 46940.111396803 61295548.684906
896	2969456 1080 33348 47955 202 237 36 356.84837773517 492.60950018134 16038.926758039 7214424.3984364
897	2970536 1174 33348 47955 202 237 36 -2.6837954328979 1.8111198969232 -3.9537563276372 20.571243196924
898	2971710 1005 33348 47955 202 237 36 0.973 4.6112042833366 53.688751037042 99.097809143009
899	2972715 1074 33348 47955 202 237 36 3.9833344284761 8.6204824168697 292.43784957289 2409.582889225
900	2973789 1046 33349 47955 203 237 35 1575.9116159242 1700.4092442324 57129.712349982 93303626.032604
901	2974835 1047 33349 47955 203 237 35 926.88272946847 1150.1944358961 36506.220827887 38251695.259564
902	2975882 1115 33349 47955 203 237 35 -1.539235233223 1.9919918206613 4.6323959450128 16.583353089557
903	2976997 1010 33349 47955 203 237 35 0.973 5.2949194230084 67.731090879631 168.95890986427
904	2978007 1061 33349 47955 203 237 35 0.010168042944925 9.8689107715144 219.21813749586 1918.3265509315
905	2979068 1020 33746 47955 204 237 34 1759.3431901063 1958.6552571577 62438.857349173 114836414.62102
906	2980088 1013 33746 47955 204 237 34 465.4348847692 585.51849484644 17450.607463152 9019460.0407951
907	2981101 1077 33746 47955 204 237 34 -2.7746773962776 2.0939759801282 2.7910025676781 40.728394060942
908	2982178 947 33746 47955 204 237 34 0.973 5.7875446674141 65.647153163992 177.35763595873
909	2983125 1017 33746 47955 204 237 34 3.8460344864735 9.7366366290949 270.6951543326 2206.8667968961
910	2984142 988 33747 47955 205 237 33 1722.8372303033 1912.6609846353 60272.031677731 110199782.41357
911	2985130 987 33747 47955 205 237 33 948.55269352455 1047.4609966653 33157.857815318 33344415.251245
912	2986117 1021 33747 47955 205 237 33 -3.1236789804919 2.0938874557801 4.1629533576397 40.357183162704
913	2987138 906 33747 47955 205 237 33 0.973 5.5851379978387 74.870065303402 242.53328007468
914	2988044 1002 33747 47955 205 237 33 0.00088216222523879 10.62495550266 231.77336268192 2271.672872592
915	2989046 959 33749 47955 206 237 32 1456.2580000802 1467.6329998942 46938.857670588 68851969.5799
916	2990005 960 33749 47955 206 237 32 549.20021082062 556.36639483784 17787.723836479 9887680.1694035
917	2990965 960 33749 47955 206 237 32 953.35770253584 1048.5206225737 31731.26880338 31487234.338449
918	2991925 954 33749 47955 206 237 32 531.24952015124 626.43117826217 18364.674749352 10568462.517442
919	2992879 1026 33749 47955 206 237 32 -2.973349341813 1.9577512330189 -4.0172973697219 32.891129690452
920	2993905 888 33749 47955 206 237 32 0.973 5.4979768410929 59.291406662717 154.95887299966
921	2994793 958 33749 47955 206 237 32 3.8863293481478 7.8865200341346 243.4055313276 1870.3561064465
922	2995751 928 33750 47955 207 237 31 1812.0651127073 1851.0665466307 56413.761047105 102666666.56176
923	2996679 929 33750 47955 207 237 31 685.09091260639 751.09808530608 22866.753010753 16882196.35729
924	2997608 997 33750 47955 207 237 31 -0.53941302536521 1.9996686399635 3.9458229987643 7.9239951744668
925	2998605 919 33750 47955 207 237 31 0.973 5.2429846951248 54.242980563338 114.25340156384
926	2999524 538 33750 47955 207 237 31 0 5.8491904019399 12.631992199126 57.998398907088
927	3000062 927 33750 47955 207 237 31 4.0949502059566 7.2673980522638 211.63723513705 1461.7379249933
928	3000989 898 33751 47955 208 237 30 1745.343701738 1908.1319071791 55430.150479682 102518741.15917
929	3001887 898 33751 47955 208 237 30 466.24853934114 561.5613004759 15763.239800011 8318908.5060432
930	3002785 524 33751 47955 208 237 30 -3.0831575705636 1.8324214361305 -4.0167689658094 20.514566548766
931	3003309 610 33751 47955 208 237 30 0.973 3.9937335017082 32.210733501708 43.405048282666
932	3003919 956 33751 47955 208 237 30 -1.601309352672 1.9390099812811 3.1036948366824 12.220187282779
933	3004875 869 33751 47955 208 237 30 0.973 4.2410508930491 53.019402667489 112.63000032875
934	3005744 631 33751 47955 208 237 30 0 8.1686240386518 75.983801659712 564.82272682426
935	3006375 867 34552 47955 209 237 29 738.87627351771 930.64208559341 24078.150041017 20093117.084611
936	3007242 863 34552 47955 209 237 29 419.44418254815 540.1546062517 13836.492778616 6641551.0668952
937	3008105 622 34552 47955 209 237 29 -4.5 2.0903935623122 -4.0850702569884 34.853168638635
938	3008727 657 34552 47955 209 237 29 0.973 5.058374596704 39.489357258373 81.195590985557
939	3009384 884 34552 47955 209 237 29 0.00081828173213969 10.44948378868 187.64930392446 1786.0707181706
940	3010268 838 34553 47955 210 237 28 860.41053715447 917.4279850116 24913.022033576 22172679.797576
941	3011106 828 34553 47955 210 237 28 853.44930874938 958.6208056168 25698.737443422 23632902.904895
942	3011934 896 34553 47955 210 237 28 -2.9656623103516 2.2296797995898 -4.0371317732855 33.486216317302
943	3012830 768 34553 47955 210 237 28 0.973 6.0558260997933 51.893586570865 144.69800477526
944	3013598 837 34553 47955 210 237 28 3.8959744418242 8.6312503913372 229.8421610212 1916.477556889
945	3014435 864 37133 47955 211 237 27 -0.94865119449356 1.8975151820085 4.6733109792284 9.716174797089
946	3015299 797 37133 47955 211 237 27 0.973 4.9244005218212 51.708659866515 121.97614008524
947	3016096 684 37133 47955 211 237 27 0 11.731526489302 140.30352069525 1252.3990085292
948	3016780 778 37134 47955 212 237 26 1736.064869728 1788.1955025781 46060.048032217 81606567.754463
949	3017558 778 37134 47955 212 237 26 789.2775713707 869.50816067151 21170.034557231 17259059.462086
950	3018336 690 37134 47955 212 237 26 -4.4969390955688 2.0803576865396 -3.9138463290209 69.973198591591
951	3019026 647 37134 47955 212 237 26 0.973 6.2255541045569 55.087907840605 189.21556960643
952	3019673 745 38164 47955 213 237 25 1895.7823863694 2056.5555236667 49491.440758749 98039061.303164
953	3020418 748 38164 47955 213 237 25 1057.1949326717 1158.3423358946 27749.638967773 30826633.669225
954	3021166 772 38164 47955 213 237 25 7.9129173354028e-05 7.6979810510497 95.273413606333 654.20189481153
955	3021938 717 38165 47955 214 237 24 2131.1489244141 2198.4968856696 51793.652730717 111788084.80738
956	3022655 715 38165 47955 214 237 24 547.6825734742 656.6122744853 14720.467885715 9064625.1546246
957	3023370 773 38165 47955 214 237 24 -2.4014946539812 2.1299825186818 -3.0569140591609 22.731852913136
958	3024143 658 38165 47955 214 237 24 0.973 4.9628293662345 37.228181047516 79.855997683477
959	3024801 718 38165 47955 214 237 24 3.9164681282755 8.440426611235 191.59393489821 1556.2509432037
960	3025519 688 38166 47955 215 237 23 2002.9381910094 2063.5859103131 46785.261578796 95175783.800762
961	3026207 684 38166 47955 215 237 23 1124.640722374 1256.5095253824 27321.600480186 32496451.132997
962	3026891 741 38166 47955 215 237 23 -1.7938239892712 2.0159522693581 2.6626144226834 11.140213039543
963	3027632 679 38166 47955 215 237 23 0.973 5.2981061709425 42.831124340083 99.795195317659
964	3028311 694 38166 47955 215 237 23 0.013024124287993 8.159745151823 127.03752865275 947.43868733975
965	3029005 659 38520 47955 216 237 22 1327.942020772 1352.9933009062 29641.434066108 39938619.565667
966	3029664 660 38520 47955 216 237 22 1087.3168731757 1128.8574929999 24127.273628992 26464618.460798
967	3030324 703 38520 47955 216 237 22 -2.3467113809988 1.8790738961589 -4.0694759325554 21.78748110393
968	3031027 597 38520 47955 216 237 22 0.973 4.9792533152325 36.229381471346 80.818429088235
969	3031624 658 38520 47955 216 237 22 4.0674994229834 9.1926022071256 185.10868530423 1592.0429103436
970	3032282 630 38521 47955 217 237 21 1937.3776609512 2063.6137888359 41837.157501841 83393064.567079
971	3032912 628 38521 47955 217 237 21 575.93239056234 655.18275601058 12817.957330875 7840825.5174322
972	3033540 667 38521 47955 217 237 21 -1.6044793063554 2.2060005113739 5.1022202200837 19.053743949455
973	3034207 585 38521 47955 217 237 21 0.973 6.013682017798 48.412999785042 157.16702352276
974	3034792 461 38521 47955 217 237 21 0 6.3939161469053 47.052631659033 278.83091224324
975	3035253 591 39254 47955 218 237 20 1823.86 1852.4069553202 36799.535733128 67712180.27028
976	3035844 589 39254 47955 218 237 20 1109.1771711237 1150.7547606174 22529.214183074 25382610.706314
977	3036433 460 39254 47955 218 237 20 -4.3990109532545 2.1327695491258 -4.0921580713999 26.716576764393
978	3036893 458 39254 47955 218 237 20 0.973 4.632170602467 25.654252601178 45.722739667644
979	3037351 556 39254 47955 218 237 20 0 11.352910289223 148.1627799386 1443.770179835
980	3037907 550 39255 47955 219 237 19 -4.4826905664792 2.1132850782177 -4.1232912673278 73.239612841561
981	3038457 487 39255 47955 219 237 19 0.973 7.1354975890701 51.369274006786 228.33480481132
982	3038944 529 39255 47955 219 237 19 0 7.8498360730798 95.431797973569 640.94437427774
983	3039473 538 40372 47955 220 237 18 1100.671958048 1209.5880088032 20688.968873575 23807073.564991
984	3040011 538 40372 47955 220 237 18 323.35042263842 386.502483007 6343.6107496017 2244654.1907085
985	3040549 534 40372 47955 220 237 18 -4.4645767212511 1.9063852019724 -3.7370537972234 57.649612632633
986	3041083 470 40372 47955 220 237 18 0.973 4.8686416133095 36.377587373643 104.98713768586
987	3041553 508 40373 47955 221 237 17 1816.0001371452 1833.9032297931 30944.044581099 56326154.607442
988	3042061 509 40373 47955 221 237 17 711.86405984344 744.71411269848 12526.584643194 9232524.8927042
989	3042570 507 40373 47955 221 237 17 3.5121813558003 11.068570711619 143.39030772297 1351.0362522409
990	3043077 479 42681 47955 222 237 16 812.9381102547 906.17419970023 13691.567598752 11730862.742052
991	3043556 479 42681 47955 222 237 16 467.25348758171 524.51367773018 7892.2375156649 3898368.1245633
992	3044035 479 42681 47955 222 237 16 1463.3097123216 1475.7959342956 23455.691886557 34385842.760002
993	3044514 479 42681 47955 222 237 16 879.90205027667 902.67666386912 14369.444868037 12905995.716973
994	3044993 501 42681 47955 222 237 16 -4.1996198193832 2.1399584263749 3.5480150390192 49.563863260527
995	3045494 458 42681 47955 222 237 16 0.973 6.4892120647074 45.430339851596 180.05944579094
996	3045952 501 42681 47955 222 237 16 0.00018710785726636 7.5669580073895 36.366548659741 209.37469213187
997	3046453 448 42682 47955 223 237 15 1531.5823026864 1575.2670989746 23337.29602597 36311345.984399
998	3046901 449 42682 47955 223 237 15 685.68487908095 760.02730452523 10744.030470415 7704095.9473518
999	3047350 485 42682 47955 223 237 15 -2.3245691073537 2.2047789430129 -3.9758458559225 19.908620128177
1000	3047835 405 42682 47955 223 237 15 0.973 4.7141601289943 22.739414184431 52.942067005135
1001	3048240 462 42682 47955 223 237 15 3.368602509296 8.1239401992505 112.45093138792 869.5734633384
1002	3048702 416 42682 47955 223 237 15 0 8.0560163491588 26.993246745402 152.15633762188
1003	3049118 460 44280 47955 224 237 14 -0.07321647729259 1.8443643208803 4.7527550602939 7.8435230821109
1004	3049578 433 44280 47955 224 237 14 1.4042427481556 4.4320918093061 28.955730174508 74.195083081142
1005	3050011 406 44280 47955 224 237 14 -3.8221075344654 2.0456974822772 -4.0234134609529 32.133786828092
1006	3050417 354 44280 47955 224 237 14 0.973 5.2474798400864 22.033722106566 60.16347115211
1007	3050771 433 44280 47955 224 237 14 4.1007308436548 8.4754849289542 107.59283827777 847.57146146924
1008	3051204 403 44281 47955 225 237 13 1231.4718893294 1309.0873508284 16553.953303485 21087854.455099
1009	3051607 402 44281 47955 225 237 13 1083.8381039956 1131.539386043 14428.685688023 16017546.576547
1010	3052009 403 44281 47955 225 237 13 2089.0775815076 2131.9923558793 27443.612755942 57937551.665332
1011	3052412 400 44281 47955 225 237 13 232.63641773325 300.69259398109 3456.3144282407 925951.16384014
1012	3052812 424 44281 47955 225 237 13 -1.1195518967424 2.0216895880923 4.3559743825982 10.129431338117
1013	3053236 393 44281 47955 225 237 13 0.973 5.4396523598119 29.296772365868 86.976400609577
1014	3053629 368 45112 47955 226 237 12 1493.9263214592 1535.8095510455 18201.217053591 27609316.924132
1015	3053997 372 45112 47955 226 237 12 457.54879834406 529.93025076125 5884.2581843506 2892191.6404926
1016	3054369 369 45112 47955 226 237 12 4.0288536429881 8.4611958808908 93.879464111662 755.38433173038
1017	3054738 371 45112 47955 226 237 12 0.69124366916863 8.072616378084 79.159267437177 583.12023129644
1018	3055109 363 45113 47955 227 237 11 -0.052419455188792 2.0083986421721 4.4143522649728 7.8097039222508
1019	3055472 340 45113 47955 227 237 11 1.4643356883028 5.1475956246529 24.684478512403 71.72680254281
1020	3055812 360 45113 47955 227 237 11 -4.4936165004391 2.0050660383143 -3.0672825316055 35.928190642362
1021	3056172 321 45113 47955 227 237 11 0.973 4.7099587692417 22.723885967533 62.640423211153
1022	3056493 341 45113 47955 227 237 11 3.9166612594672 8.6208607308882 86.318427546028 700.5260543692
1023	3056834 309 47944 47955 228 237 10 793.91079821716 844.08446333729 8165.7575451547 6670742.5650296
1024	3057143 309 47944 47955 228 237 10 454.44491393386 486.06657830719 4692.2785949817 2202868.3114265
1025	3057452 328 47944 47955 228 237 10 -0.092845968194306 2.0905549786845 4.6320357850039 8.1676771734943
1026	3057780 309 47944 47955 228 237 10 1.387464883741 4.7561843644744 23.546910491389 71.212764795745
1027	3058089 279 47945 47955 229 237 9 571.33692117579 615.30431125846 5320.7404337298 3147564.4397254
1028	3058368 277 47945 47955 229 237 9 910.55585444068 936.63442282703 8301.0006244242 7656985.9972436
1029	3058645 279 47945 47955 229 237 9 3.8243659648373 7.4884627313416 61.456443394238 431.61478363997
1030	3058924 259 47946 47955 230 237 8 -0.56287346024648 2.2379336208245 3.6640967665043 7.5127647134533
1031	3059183 238 47946 47955 230 237 8 0.973 4.6926800031574 18.272257124669 54.325290247045
1032	3059421 248 47946 47955 230 237 8 3.8580399124196 7.3847616155826 53.481941897033 368.96426322597
1033	3059669 217 47947 47955 231 237 7 1076.4316417951 1097.9522876157 7595.1420215665 8241269.7878854
1034	3059886 214 47947 47955 231 237 7 618.33525327118 652.98196675537 4474.0839794638 2860634.5065348
1035	3060100 216 47947 47955 231 237 7 2125.7900896446 2139.812095055 14915.084370362 31780173.66378
1036	3060316 216 47947 47955 231 237 7 689.59839982885 698.31421622019 4848.6667593 3358591.2560857
1037	3060532 228 47947 47955 231 237 7 -0.087382999281399 1.8335240398441 3.4376321987758 6.1481937070272
1038	3060760 216 47947 47955 231 237 7 1.3428995722114 4.4447368999849 15.759604861462 46.128690460613
1039	3060976 185 47948 47955 232 237 6 932.63030669831 961.63825201939 5668.0833906966 5355149.7543345
1040	3061161 185 47948 47955 232 237 6 1004.166085778 1022.3149117256 6070.2319920988 6141529.364971
1041	3061346 186 47948 47955 232 237 6 3.2462439506174 10.700638468763 44.575174723683 372.48234999059
1042	3061532 159 47948 47955 232 237 6 0 5.8083915957901 14.934122351728 72.677685129837
1043	3061691 156 47949 47955 233 237 5 -0.95901751309595 1.9090997568797 6.4953770050499 14.814937103663
1044	3061847 144 47949 47955 233 237 5 0.973 6.494491518677 21.359471653208 109.57799397961
1045	3061991 146 47949 47955 233 237 5 -4.4600836100893 1.8593079491355 -3.9490836466546 24.457889618974
1046	3062137 115 47949 47955 233 237 5 0.973 4.0110002541171 7.9030002541171 19.875039038527
1047	3062252 153 47949 47955 233 237 5 3.9878769401904 9.840685505351 37.647228588479 308.72287874865
1048	3062405 124 47950 47955 234 237 4 1486.9464070689 1501.2896207565 5980.1863079707 8940775.1831335
1049	3062529 124 47950 47955 234 237 4 733.01466869642 739.25021688478 2946.111830871 2169916.0028335
1050	3062653 126 47950 47955 234 237 4 0.081389013266561 2.0661492530187 5.8528085651606 11.159587220735
1051	3062779 124 47950 47955 234 237 4 1.8657709348508 5.7919366410555 17.403028383409 84.89269983971
1052	3062903 93 47952 47955 235 237 3 2102.6943140803 2102.7958909607 6308.211262123 13264509.781403
1053	3062996 93 47952 47955 235 237 3 702.28722298546 702.44899138925 2107.1426156323 1480016.6816
1054	3063089 93 47952 47955 235 237 3 4.1578080474362 7.6940863916563 18.000963170726 114.29737942795
1055	3063182 61 47953 47955 236 237 2 1547.409880141 1549.1133286037 3096.5232087446 4794229.4420154
1056	3063243 62 47953 47955 236 237 2 1175.9114451313 1178.6996670859 2354.6111122173 2772100.6319794
1057	3063305 62 47953 47955 236 237 2 1.5450176600223 1.9912606841978 3.5362783442201 6.3521986822126
1058	3063367 62 47953 47955 236 237 2 4.3790095298432 4.3881269843496 8.7671365141928 38.431382893235
1059	3063429 66 47953 47955 236 237 2 0.031030935049142 0.084436354833851 0.11546728988299 0.008092416947652
1060	3063495 30 47955 47955 237 237 1 1372.033187282 1372.033187282 1372.033187282 1882475.0670033
1061	3063525 31 47955 47955 237 237 1 492.33992275562 492.33992275562 492.33992275562 242398.59953901
1062	3063556 31 47955 47955 237 237 1 1751.5444218649 1751.5444218649 1751.5444218649 3067907.8617661
1063	3063587 31 47955 47955 237 237 1 844.19519931136 844.19519931136 844.19519931136 712665.53454034
1064	3063618 34 47955 47955 237 237 1 -0.053405419784709 -0.053405419784709 -0.053405419784709 0.002852138862381
1065	3063652 31 47955 47955 237 237 1 1.1110975450199 1.1110975450199 1.1110975450199 1.2345377545493
1066	3063683 30 47955 47955 237 237 1 4.190821817844 4.190821817844 4.190821817844 17.562987508917

