version 2
run Default-0-20230407-02:10:50-4128
attr configname Default
attr datetime 20230407-02:10:50
attr experiment Default
attr inifile omnetpp.ini
attr iterationvars ""
attr iterationvarsf ""
attr measurement ""
attr network RSUExampleScenario
attr processid 4128
attr repetition 0
attr replication #0
attr resultdir results
attr runnumber 0
attr seedset 0
param *.playgroundSizeX 2500m
param *.playgroundSizeY 2500m
param *.playgroundSizeZ 50m
param *.annotations.draw true
param *.obstacles.obstacles "xmldoc(\"config.xml\", \"//AnalogueModel[@type='SimpleObstacleShadowing']/obstacles\")"
param *.manager.updateInterval 1s
param *.manager.host "\"localhost\""
param *.manager.port 9999
param *.manager.autoShutdown true
param *.manager.launchConfig "xmldoc(\"mtl.launchd.xml\")"
param *.rsu[0].mobility.x 2000
param *.rsu[0].mobility.y 2000
param *.rsu[0].mobility.z 3
param *.rsu[*].applType "\"TraCIDemoRSU11p\""
param *.rsu[*].appl.headerLength "80 bit"
param *.rsu[*].appl.sendBeacons false
param *.rsu[*].appl.dataOnSch false
param *.rsu[*].appl.beaconInterval 1s
param *.rsu[*].appl.beaconUserPriority 7
param *.rsu[*].appl.dataUserPriority 5
param *.rsu[*].nic.phy80211p.antennaOffsetZ "0 m"
param *.connectionManager.sendDirect true
param *.connectionManager.maxInterfDist 2600m
param *.connectionManager.drawMaxIntfDist false
param *.**.nic.mac1609_4.useServiceChannel false
param *.**.nic.mac1609_4.txPower 20mW
param *.**.nic.mac1609_4.bitrate 6Mbps
param *.**.nic.phy80211p.minPowerLevel -110dBm
param *.**.nic.phy80211p.useNoiseFloor true
param *.**.nic.phy80211p.noiseFloor -98dBm
param *.**.nic.phy80211p.decider "xmldoc(\"config.xml\")"
param *.**.nic.phy80211p.analogueModels "xmldoc(\"config.xml\")"
param *.**.nic.phy80211p.usePropagationDelay true
param *.**.nic.phy80211p.antenna "xmldoc(\"antenna.xml\", \"/root/Antenna[@id='monopole']\")"
param *.node[*].nic.phy80211p.antennaOffsetY "0 m"
param *.node[*].nic.phy80211p.antennaOffsetZ "1.895 m"
param *.node[*].applType "\"TraCIDemo11p\""
param *.node[*].appl.headerLength "80 bit"
param *.node[*].appl.sendBeacons false
param *.node[*].appl.dataOnSch false
param *.node[*].appl.beaconInterval 1s
param *.node[*].veinsmobility.x 0
param *.node[*].veinsmobility.y 0
param *.node[*].veinsmobility.z 0
param *.node[*].veinsmobility.setHostSpeed false
param *.node[*0].veinsmobility.accidentCount 1
param *.node[*0].veinsmobility.accidentStart 73s
param *.node[*0].veinsmobility.accidentDuration 50s

scalar RSUExampleScenario.node[9].appl generatedWSMs 1
scalar RSUExampleScenario.node[9].appl receivedWSMs 2
scalar RSUExampleScenario.node[9].appl generatedBSMs 0
scalar RSUExampleScenario.node[9].appl receivedBSMs 0
scalar RSUExampleScenario.node[9].appl generatedWSAs 0
scalar RSUExampleScenario.node[9].appl receivedWSAs 0
scalar RSUExampleScenario.node[9].nic.phy80211p busyTime 1.3132075471698e-05
scalar RSUExampleScenario.node[9].nic.mac1609_4 ReceivedUnicastPackets 0
scalar RSUExampleScenario.node[9].nic.mac1609_4 ReceivedBroadcasts 2
scalar RSUExampleScenario.node[9].nic.mac1609_4 SentPackets 1
scalar RSUExampleScenario.node[9].nic.mac1609_4 SentAcknowledgements 0
scalar RSUExampleScenario.node[9].nic.mac1609_4 RetriesExceeded 0
scalar RSUExampleScenario.node[9].nic.mac1609_4 SNIRLostPackets 1
scalar RSUExampleScenario.node[9].nic.mac1609_4 RXTXLostPackets 0
scalar RSUExampleScenario.node[9].nic.mac1609_4 TotalLostPackets 1
scalar RSUExampleScenario.node[9].nic.mac1609_4 DroppedPacketsInMac 0
scalar RSUExampleScenario.node[9].nic.mac1609_4 TooLittleTime 0
scalar RSUExampleScenario.node[9].nic.mac1609_4 TimesIntoBackoff 1
scalar RSUExampleScenario.node[9].nic.mac1609_4 SlotsBackoff 3
scalar RSUExampleScenario.node[9].nic.mac1609_4 NumInternalContention 0
scalar RSUExampleScenario.node[9].nic.mac1609_4 totalBusyTime 0.000929
scalar RSUExampleScenario.node[9].nic.mac1609_4 retriesExceeded:count 0
attr source org_car2x_veins_modules_mac_sigRetriesExceeded
scalar RSUExampleScenario.node[9].nic.mac1609_4 sentAcks:count 0
attr source org_car2x_veins_modules_mac_sigSentAck
scalar RSUExampleScenario.node[9].nic.mac1609_4 sentPackets:count 1
attr source org_car2x_veins_modules_mac_sigSentPacket
scalar RSUExampleScenario.node[9].nic.mac1609_4 collisions:count 0
attr source org_car2x_veins_modules_mac_sigCollision
scalar RSUExampleScenario.node[9].nic.mac1609_4 channelBusy:timeavg 1.7528301886792e-05
attr source org_car2x_veins_modules_mac_sigChannelBusy
scalar RSUExampleScenario.node[9].veinsmobility startTime 10
scalar RSUExampleScenario.node[9].veinsmobility totalTime 52
scalar RSUExampleScenario.node[9].veinsmobility stopTime 63
scalar RSUExampleScenario.node[9].veinsmobility minSpeed 4.0772753175295
scalar RSUExampleScenario.node[9].veinsmobility maxSpeed 22.592506998794
scalar RSUExampleScenario.node[9].veinsmobility totalDistance 595.31235026772
scalar RSUExampleScenario.node[9].veinsmobility totalCO2Emission 189.33455175849
scalar RSUExampleScenario.node[15].appl generatedWSMs 1
scalar RSUExampleScenario.node[15].appl receivedWSMs 3
scalar RSUExampleScenario.node[15].appl generatedBSMs 0
scalar RSUExampleScenario.node[15].appl receivedBSMs 0
scalar RSUExampleScenario.node[15].appl generatedWSAs 0
scalar RSUExampleScenario.node[15].appl receivedWSAs 0
scalar RSUExampleScenario.node[15].nic.phy80211p busyTime 1.1225806451613e-05
scalar RSUExampleScenario.node[15].nic.mac1609_4 ReceivedUnicastPackets 0
scalar RSUExampleScenario.node[15].nic.mac1609_4 ReceivedBroadcasts 3
scalar RSUExampleScenario.node[15].nic.mac1609_4 SentPackets 1
scalar RSUExampleScenario.node[15].nic.mac1609_4 SentAcknowledgements 0
scalar RSUExampleScenario.node[15].nic.mac1609_4 RetriesExceeded 0
scalar RSUExampleScenario.node[15].nic.mac1609_4 SNIRLostPackets 0
scalar RSUExampleScenario.node[15].nic.mac1609_4 RXTXLostPackets 0
scalar RSUExampleScenario.node[15].nic.mac1609_4 TotalLostPackets 0
scalar RSUExampleScenario.node[15].nic.mac1609_4 DroppedPacketsInMac 0
scalar RSUExampleScenario.node[15].nic.mac1609_4 TooLittleTime 0
scalar RSUExampleScenario.node[15].nic.mac1609_4 TimesIntoBackoff 1
scalar RSUExampleScenario.node[15].nic.mac1609_4 SlotsBackoff 0
scalar RSUExampleScenario.node[15].nic.mac1609_4 NumInternalContention 0
scalar RSUExampleScenario.node[15].nic.mac1609_4 totalBusyTime 0.000929
scalar RSUExampleScenario.node[15].nic.mac1609_4 retriesExceeded:count 0
attr source org_car2x_veins_modules_mac_sigRetriesExceeded
scalar RSUExampleScenario.node[15].nic.mac1609_4 sentAcks:count 0
attr source org_car2x_veins_modules_mac_sigSentAck
scalar RSUExampleScenario.node[15].nic.mac1609_4 sentPackets:count 1
attr source org_car2x_veins_modules_mac_sigSentPacket
scalar RSUExampleScenario.node[15].nic.mac1609_4 collisions:count 0
attr source org_car2x_veins_modules_mac_sigCollision
scalar RSUExampleScenario.node[15].nic.mac1609_4 channelBusy:timeavg 1.4983870967742e-05
attr source org_car2x_veins_modules_mac_sigChannelBusy
scalar RSUExampleScenario.node[15].veinsmobility startTime 17
scalar RSUExampleScenario.node[15].veinsmobility totalTime 61
scalar RSUExampleScenario.node[15].veinsmobility stopTime 79
scalar RSUExampleScenario.node[15].veinsmobility minSpeed 0
scalar RSUExampleScenario.node[15].veinsmobility maxSpeed 10.572111328356
scalar RSUExampleScenario.node[15].veinsmobility totalDistance 175.57776673394
scalar RSUExampleScenario.node[15].veinsmobility totalCO2Emission 95.898388539898
scalar RSUExampleScenario.node[29].appl generatedWSMs 1
scalar RSUExampleScenario.node[29].appl receivedWSMs 2
scalar RSUExampleScenario.node[29].appl generatedBSMs 0
scalar RSUExampleScenario.node[29].appl receivedBSMs 0
scalar RSUExampleScenario.node[29].appl generatedWSAs 0
scalar RSUExampleScenario.node[29].appl receivedWSAs 0
scalar RSUExampleScenario.node[29].nic.phy80211p busyTime 9.28e-06
scalar RSUExampleScenario.node[29].nic.mac1609_4 ReceivedUnicastPackets 0
scalar RSUExampleScenario.node[29].nic.mac1609_4 ReceivedBroadcasts 2
scalar RSUExampleScenario.node[29].nic.mac1609_4 SentPackets 1
scalar RSUExampleScenario.node[29].nic.mac1609_4 SentAcknowledgements 0
scalar RSUExampleScenario.node[29].nic.mac1609_4 RetriesExceeded 0
scalar RSUExampleScenario.node[29].nic.mac1609_4 SNIRLostPackets 0
scalar RSUExampleScenario.node[29].nic.mac1609_4 RXTXLostPackets 0
scalar RSUExampleScenario.node[29].nic.mac1609_4 TotalLostPackets 0
scalar RSUExampleScenario.node[29].nic.mac1609_4 DroppedPacketsInMac 0
scalar RSUExampleScenario.node[29].nic.mac1609_4 TooLittleTime 0
scalar RSUExampleScenario.node[29].nic.mac1609_4 TimesIntoBackoff 1
scalar RSUExampleScenario.node[29].nic.mac1609_4 SlotsBackoff 0
scalar RSUExampleScenario.node[29].nic.mac1609_4 NumInternalContention 0
scalar RSUExampleScenario.node[29].nic.mac1609_4 totalBusyTime 0.000697
scalar RSUExampleScenario.node[29].nic.mac1609_4 retriesExceeded:count 0
attr source org_car2x_veins_modules_mac_sigRetriesExceeded
scalar RSUExampleScenario.node[29].nic.mac1609_4 sentAcks:count 0
attr source org_car2x_veins_modules_mac_sigSentAck
scalar RSUExampleScenario.node[29].nic.mac1609_4 sentPackets:count 1
attr source org_car2x_veins_modules_mac_sigSentPacket
scalar RSUExampleScenario.node[29].nic.mac1609_4 collisions:count 0
attr source org_car2x_veins_modules_mac_sigCollision
scalar RSUExampleScenario.node[29].nic.mac1609_4 channelBusy:timeavg 1.394e-05
attr source org_car2x_veins_modules_mac_sigChannelBusy
scalar RSUExampleScenario.node[29].veinsmobility startTime 31
scalar RSUExampleScenario.node[29].veinsmobility totalTime 49
scalar RSUExampleScenario.node[29].veinsmobility stopTime 81
scalar RSUExampleScenario.node[29].veinsmobility minSpeed 3.8456590250036
scalar RSUExampleScenario.node[29].veinsmobility maxSpeed 8.7756749149488
scalar RSUExampleScenario.node[29].veinsmobility totalDistance 387.41018286131
scalar RSUExampleScenario.node[29].veinsmobility totalCO2Emission 95.901422400744
scalar RSUExampleScenario.node[45].appl generatedWSMs 0
scalar RSUExampleScenario.node[45].appl receivedWSMs 0
scalar RSUExampleScenario.node[45].appl generatedBSMs 0
scalar RSUExampleScenario.node[45].appl receivedBSMs 0
scalar RSUExampleScenario.node[45].appl generatedWSAs 0
scalar RSUExampleScenario.node[45].appl receivedWSAs 0
scalar RSUExampleScenario.node[45].nic.phy80211p busyTime 0
scalar RSUExampleScenario.node[45].nic.mac1609_4 ReceivedUnicastPackets 0
scalar RSUExampleScenario.node[45].nic.mac1609_4 ReceivedBroadcasts 0
scalar RSUExampleScenario.node[45].nic.mac1609_4 SentPackets 0
scalar RSUExampleScenario.node[45].nic.mac1609_4 SentAcknowledgements 0
scalar RSUExampleScenario.node[45].nic.mac1609_4 RetriesExceeded 0
scalar RSUExampleScenario.node[45].nic.mac1609_4 SNIRLostPackets 0
scalar RSUExampleScenario.node[45].nic.mac1609_4 RXTXLostPackets 0
scalar RSUExampleScenario.node[45].nic.mac1609_4 TotalLostPackets 0
scalar RSUExampleScenario.node[45].nic.mac1609_4 DroppedPacketsInMac 0
scalar RSUExampleScenario.node[45].nic.mac1609_4 TooLittleTime 0
scalar RSUExampleScenario.node[45].nic.mac1609_4 TimesIntoBackoff 0
scalar RSUExampleScenario.node[45].nic.mac1609_4 SlotsBackoff 0
scalar RSUExampleScenario.node[45].nic.mac1609_4 NumInternalContention 0
scalar RSUExampleScenario.node[45].nic.mac1609_4 totalBusyTime 0
scalar RSUExampleScenario.node[45].nic.mac1609_4 retriesExceeded:count 0
attr source org_car2x_veins_modules_mac_sigRetriesExceeded
scalar RSUExampleScenario.node[45].nic.mac1609_4 sentAcks:count 0
attr source org_car2x_veins_modules_mac_sigSentAck
scalar RSUExampleScenario.node[45].nic.mac1609_4 sentPackets:count 0
attr source org_car2x_veins_modules_mac_sigSentPacket
scalar RSUExampleScenario.node[45].nic.mac1609_4 collisions:count 0
attr source org_car2x_veins_modules_mac_sigCollision
scalar RSUExampleScenario.node[45].nic.mac1609_4 channelBusy:timeavg 0
attr source org_car2x_veins_modules_mac_sigChannelBusy
scalar RSUExampleScenario.node[45].veinsmobility startTime 48
scalar RSUExampleScenario.node[45].veinsmobility totalTime 41
scalar RSUExampleScenario.node[45].veinsmobility stopTime 90
scalar RSUExampleScenario.node[45].veinsmobility minSpeed 4.1228806306687
scalar RSUExampleScenario.node[45].veinsmobility maxSpeed 9.8330983571339
scalar RSUExampleScenario.node[45].veinsmobility totalDistance 377.0208557665
scalar RSUExampleScenario.node[45].veinsmobility totalCO2Emission 90.143981784106
scalar RSUExampleScenario.node[16].appl generatedWSMs 1
scalar RSUExampleScenario.node[16].appl receivedWSMs 6
scalar RSUExampleScenario.node[16].appl generatedBSMs 0
scalar RSUExampleScenario.node[16].appl receivedBSMs 0
scalar RSUExampleScenario.node[16].appl generatedWSAs 0
scalar RSUExampleScenario.node[16].appl receivedWSAs 0
scalar RSUExampleScenario.node[16].nic.phy80211p busyTime 2.0556962025316e-05
scalar RSUExampleScenario.node[16].nic.mac1609_4 ReceivedUnicastPackets 0
scalar RSUExampleScenario.node[16].nic.mac1609_4 ReceivedBroadcasts 6
scalar RSUExampleScenario.node[16].nic.mac1609_4 SentPackets 1
scalar RSUExampleScenario.node[16].nic.mac1609_4 SentAcknowledgements 0
scalar RSUExampleScenario.node[16].nic.mac1609_4 RetriesExceeded 0
scalar RSUExampleScenario.node[16].nic.mac1609_4 SNIRLostPackets 1
scalar RSUExampleScenario.node[16].nic.mac1609_4 RXTXLostPackets 0
scalar RSUExampleScenario.node[16].nic.mac1609_4 TotalLostPackets 1
scalar RSUExampleScenario.node[16].nic.mac1609_4 DroppedPacketsInMac 0
scalar RSUExampleScenario.node[16].nic.mac1609_4 TooLittleTime 0
scalar RSUExampleScenario.node[16].nic.mac1609_4 TimesIntoBackoff 1
scalar RSUExampleScenario.node[16].nic.mac1609_4 SlotsBackoff 2
scalar RSUExampleScenario.node[16].nic.mac1609_4 NumInternalContention 0
scalar RSUExampleScenario.node[16].nic.mac1609_4 totalBusyTime 0.001857
scalar RSUExampleScenario.node[16].nic.mac1609_4 retriesExceeded:count 0
attr source org_car2x_veins_modules_mac_sigRetriesExceeded
scalar RSUExampleScenario.node[16].nic.mac1609_4 sentAcks:count 0
attr source org_car2x_veins_modules_mac_sigSentAck
scalar RSUExampleScenario.node[16].nic.mac1609_4 sentPackets:count 1
attr source org_car2x_veins_modules_mac_sigSentPacket
scalar RSUExampleScenario.node[16].nic.mac1609_4 collisions:count 0
attr source org_car2x_veins_modules_mac_sigCollision
scalar RSUExampleScenario.node[16].nic.mac1609_4 channelBusy:timeavg 2.3506329113924e-05
attr source org_car2x_veins_modules_mac_sigChannelBusy
scalar RSUExampleScenario.node[16].veinsmobility startTime 18
scalar RSUExampleScenario.node[16].veinsmobility totalTime 78
scalar RSUExampleScenario.node[16].veinsmobility stopTime 97
scalar RSUExampleScenario.node[16].veinsmobility minSpeed 0
scalar RSUExampleScenario.node[16].veinsmobility maxSpeed 11.735163828026
scalar RSUExampleScenario.node[16].veinsmobility totalDistance 380.89868976944
scalar RSUExampleScenario.node[16].veinsmobility totalCO2Emission 139.66284183311
scalar RSUExampleScenario.node[31].appl generatedWSMs 1
scalar RSUExampleScenario.node[31].appl receivedWSMs 10
scalar RSUExampleScenario.node[31].appl generatedBSMs 0
scalar RSUExampleScenario.node[31].appl receivedBSMs 0
scalar RSUExampleScenario.node[31].appl generatedWSAs 0
scalar RSUExampleScenario.node[31].appl receivedWSAs 0
scalar RSUExampleScenario.node[31].nic.phy80211p busyTime 4.2830769230769e-05
scalar RSUExampleScenario.node[31].nic.mac1609_4 ReceivedUnicastPackets 0
scalar RSUExampleScenario.node[31].nic.mac1609_4 ReceivedBroadcasts 10
scalar RSUExampleScenario.node[31].nic.mac1609_4 SentPackets 1
scalar RSUExampleScenario.node[31].nic.mac1609_4 SentAcknowledgements 0
scalar RSUExampleScenario.node[31].nic.mac1609_4 RetriesExceeded 0
scalar RSUExampleScenario.node[31].nic.mac1609_4 SNIRLostPackets 2
scalar RSUExampleScenario.node[31].nic.mac1609_4 RXTXLostPackets 0
scalar RSUExampleScenario.node[31].nic.mac1609_4 TotalLostPackets 2
scalar RSUExampleScenario.node[31].nic.mac1609_4 DroppedPacketsInMac 0
scalar RSUExampleScenario.node[31].nic.mac1609_4 TooLittleTime 0
scalar RSUExampleScenario.node[31].nic.mac1609_4 TimesIntoBackoff 1
scalar RSUExampleScenario.node[31].nic.mac1609_4 SlotsBackoff 2
scalar RSUExampleScenario.node[31].nic.mac1609_4 NumInternalContention 0
scalar RSUExampleScenario.node[31].nic.mac1609_4 totalBusyTime 0.003017
scalar RSUExampleScenario.node[31].nic.mac1609_4 retriesExceeded:count 0
attr source org_car2x_veins_modules_mac_sigRetriesExceeded
scalar RSUExampleScenario.node[31].nic.mac1609_4 sentAcks:count 0
attr source org_car2x_veins_modules_mac_sigSentAck
scalar RSUExampleScenario.node[31].nic.mac1609_4 sentPackets:count 1
attr source org_car2x_veins_modules_mac_sigSentPacket
scalar RSUExampleScenario.node[31].nic.mac1609_4 collisions:count 0
attr source org_car2x_veins_modules_mac_sigCollision
scalar RSUExampleScenario.node[31].nic.mac1609_4 channelBusy:timeavg 4.6415384615385e-05
attr source org_car2x_veins_modules_mac_sigChannelBusy
scalar RSUExampleScenario.node[31].veinsmobility startTime 33
scalar RSUExampleScenario.node[31].veinsmobility totalTime 64
scalar RSUExampleScenario.node[31].veinsmobility stopTime 98
scalar RSUExampleScenario.node[31].veinsmobility minSpeed 0
scalar RSUExampleScenario.node[31].veinsmobility maxSpeed 13.213895273845
scalar RSUExampleScenario.node[31].veinsmobility totalDistance 574.35637504635
scalar RSUExampleScenario.node[31].veinsmobility totalCO2Emission 148.18941759965
scalar RSUExampleScenario.node[34].appl generatedWSMs 1
scalar RSUExampleScenario.node[34].appl receivedWSMs 3
scalar RSUExampleScenario.node[34].appl generatedBSMs 0
scalar RSUExampleScenario.node[34].appl receivedBSMs 0
scalar RSUExampleScenario.node[34].appl generatedWSAs 0
scalar RSUExampleScenario.node[34].appl receivedWSAs 0
scalar RSUExampleScenario.node[34].nic.phy80211p busyTime 1.0875e-05
scalar RSUExampleScenario.node[34].nic.mac1609_4 ReceivedUnicastPackets 0
scalar RSUExampleScenario.node[34].nic.mac1609_4 ReceivedBroadcasts 3
scalar RSUExampleScenario.node[34].nic.mac1609_4 SentPackets 1
scalar RSUExampleScenario.node[34].nic.mac1609_4 SentAcknowledgements 0
scalar RSUExampleScenario.node[34].nic.mac1609_4 RetriesExceeded 0
scalar RSUExampleScenario.node[34].nic.mac1609_4 SNIRLostPackets 0
scalar RSUExampleScenario.node[34].nic.mac1609_4 RXTXLostPackets 0
scalar RSUExampleScenario.node[34].nic.mac1609_4 TotalLostPackets 0
scalar RSUExampleScenario.node[34].nic.mac1609_4 DroppedPacketsInMac 0
scalar RSUExampleScenario.node[34].nic.mac1609_4 TooLittleTime 0
scalar RSUExampleScenario.node[34].nic.mac1609_4 TimesIntoBackoff 1
scalar RSUExampleScenario.node[34].nic.mac1609_4 SlotsBackoff 1
scalar RSUExampleScenario.node[34].nic.mac1609_4 NumInternalContention 0
scalar RSUExampleScenario.node[34].nic.mac1609_4 totalBusyTime 0.000929
scalar RSUExampleScenario.node[34].nic.mac1609_4 retriesExceeded:count 0
attr source org_car2x_veins_modules_mac_sigRetriesExceeded
scalar RSUExampleScenario.node[34].nic.mac1609_4 sentAcks:count 0
attr source org_car2x_veins_modules_mac_sigSentAck
scalar RSUExampleScenario.node[34].nic.mac1609_4 sentPackets:count 1
attr source org_car2x_veins_modules_mac_sigSentPacket
scalar RSUExampleScenario.node[34].nic.mac1609_4 collisions:count 0
attr source org_car2x_veins_modules_mac_sigCollision
scalar RSUExampleScenario.node[34].nic.mac1609_4 channelBusy:timeavg 1.4515625e-05
attr source org_car2x_veins_modules_mac_sigChannelBusy
scalar RSUExampleScenario.node[34].veinsmobility startTime 37
scalar RSUExampleScenario.node[34].veinsmobility totalTime 63
scalar RSUExampleScenario.node[34].veinsmobility stopTime 101
scalar RSUExampleScenario.node[34].veinsmobility minSpeed 3.8411307541832
scalar RSUExampleScenario.node[34].veinsmobility maxSpeed 8.575260688686
scalar RSUExampleScenario.node[34].veinsmobility totalDistance 514.77876466639
scalar RSUExampleScenario.node[34].veinsmobility totalCO2Emission 110.25010774363
scalar RSUExampleScenario.node[74].appl generatedWSMs 0
scalar RSUExampleScenario.node[74].appl receivedWSMs 0
scalar RSUExampleScenario.node[74].appl generatedBSMs 0
scalar RSUExampleScenario.node[74].appl receivedBSMs 0
scalar RSUExampleScenario.node[74].appl generatedWSAs 0
scalar RSUExampleScenario.node[74].appl receivedWSAs 0
scalar RSUExampleScenario.node[74].nic.phy80211p busyTime 1.0086956521739e-05
scalar RSUExampleScenario.node[74].nic.mac1609_4 ReceivedUnicastPackets 0
scalar RSUExampleScenario.node[74].nic.mac1609_4 ReceivedBroadcasts 0
scalar RSUExampleScenario.node[74].nic.mac1609_4 SentPackets 0
scalar RSUExampleScenario.node[74].nic.mac1609_4 SentAcknowledgements 0
scalar RSUExampleScenario.node[74].nic.mac1609_4 RetriesExceeded 0
scalar RSUExampleScenario.node[74].nic.mac1609_4 SNIRLostPackets 1
scalar RSUExampleScenario.node[74].nic.mac1609_4 RXTXLostPackets 0
scalar RSUExampleScenario.node[74].nic.mac1609_4 TotalLostPackets 1
scalar RSUExampleScenario.node[74].nic.mac1609_4 DroppedPacketsInMac 0
scalar RSUExampleScenario.node[74].nic.mac1609_4 TooLittleTime 0
scalar RSUExampleScenario.node[74].nic.mac1609_4 TimesIntoBackoff 0
scalar RSUExampleScenario.node[74].nic.mac1609_4 SlotsBackoff 0
scalar RSUExampleScenario.node[74].nic.mac1609_4 NumInternalContention 0
scalar RSUExampleScenario.node[74].nic.mac1609_4 totalBusyTime 0.000232
scalar RSUExampleScenario.node[74].nic.mac1609_4 retriesExceeded:count 0
attr source org_car2x_veins_modules_mac_sigRetriesExceeded
scalar RSUExampleScenario.node[74].nic.mac1609_4 sentAcks:count 0
attr source org_car2x_veins_modules_mac_sigSentAck
scalar RSUExampleScenario.node[74].nic.mac1609_4 sentPackets:count 0
attr source org_car2x_veins_modules_mac_sigSentPacket
scalar RSUExampleScenario.node[74].nic.mac1609_4 collisions:count 0
attr source org_car2x_veins_modules_mac_sigCollision
scalar RSUExampleScenario.node[74].nic.mac1609_4 channelBusy:timeavg 1.0086956521739e-05
attr source org_car2x_veins_modules_mac_sigChannelBusy
scalar RSUExampleScenario.node[74].veinsmobility startTime 80
scalar RSUExampleScenario.node[74].veinsmobility totalTime 22
scalar RSUExampleScenario.node[74].veinsmobility stopTime 103
scalar RSUExampleScenario.node[74].veinsmobility minSpeed 0
scalar RSUExampleScenario.node[74].veinsmobility maxSpeed 7.3003075397223
scalar RSUExampleScenario.node[74].veinsmobility totalDistance 110.42929737817
scalar RSUExampleScenario.node[74].veinsmobility totalCO2Emission 41.365715739808
scalar RSUExampleScenario.node[8].appl generatedWSMs 1
scalar RSUExampleScenario.node[8].appl receivedWSMs 5
scalar RSUExampleScenario.node[8].appl generatedBSMs 0
scalar RSUExampleScenario.node[8].appl receivedBSMs 0
scalar RSUExampleScenario.node[8].appl generatedWSAs 0
scalar RSUExampleScenario.node[8].appl receivedWSAs 0
scalar RSUExampleScenario.node[8].nic.phy80211p busyTime 1.2083333333333e-05
scalar RSUExampleScenario.node[8].nic.mac1609_4 ReceivedUnicastPackets 0
scalar RSUExampleScenario.node[8].nic.mac1609_4 ReceivedBroadcasts 5
scalar RSUExampleScenario.node[8].nic.mac1609_4 SentPackets 1
scalar RSUExampleScenario.node[8].nic.mac1609_4 SentAcknowledgements 0
scalar RSUExampleScenario.node[8].nic.mac1609_4 RetriesExceeded 0
scalar RSUExampleScenario.node[8].nic.mac1609_4 SNIRLostPackets 0
scalar RSUExampleScenario.node[8].nic.mac1609_4 RXTXLostPackets 0
scalar RSUExampleScenario.node[8].nic.mac1609_4 TotalLostPackets 0
scalar RSUExampleScenario.node[8].nic.mac1609_4 DroppedPacketsInMac 0
scalar RSUExampleScenario.node[8].nic.mac1609_4 TooLittleTime 0
scalar RSUExampleScenario.node[8].nic.mac1609_4 TimesIntoBackoff 1
scalar RSUExampleScenario.node[8].nic.mac1609_4 SlotsBackoff 0
scalar RSUExampleScenario.node[8].nic.mac1609_4 NumInternalContention 0
scalar RSUExampleScenario.node[8].nic.mac1609_4 totalBusyTime 0.001393
scalar RSUExampleScenario.node[8].nic.mac1609_4 retriesExceeded:count 0
attr source org_car2x_veins_modules_mac_sigRetriesExceeded
scalar RSUExampleScenario.node[8].nic.mac1609_4 sentAcks:count 0
attr source org_car2x_veins_modules_mac_sigSentAck
scalar RSUExampleScenario.node[8].nic.mac1609_4 sentPackets:count 1
attr source org_car2x_veins_modules_mac_sigSentPacket
scalar RSUExampleScenario.node[8].nic.mac1609_4 collisions:count 0
attr source org_car2x_veins_modules_mac_sigCollision
scalar RSUExampleScenario.node[8].nic.mac1609_4 channelBusy:timeavg 1.4510416666667e-05
attr source org_car2x_veins_modules_mac_sigChannelBusy
scalar RSUExampleScenario.node[8].veinsmobility startTime 9
scalar RSUExampleScenario.node[8].veinsmobility totalTime 95
scalar RSUExampleScenario.node[8].veinsmobility stopTime 105
scalar RSUExampleScenario.node[8].veinsmobility minSpeed 3.846408196245
scalar RSUExampleScenario.node[8].veinsmobility maxSpeed 11.605078509568
scalar RSUExampleScenario.node[8].veinsmobility totalDistance 761.37517806897
scalar RSUExampleScenario.node[8].veinsmobility totalCO2Emission 187.1977832855
scalar RSUExampleScenario.node[54].appl generatedWSMs 1
scalar RSUExampleScenario.node[54].appl receivedWSMs 4
scalar RSUExampleScenario.node[54].appl generatedBSMs 0
scalar RSUExampleScenario.node[54].appl receivedBSMs 0
scalar RSUExampleScenario.node[54].appl generatedWSAs 0
scalar RSUExampleScenario.node[54].appl receivedWSAs 0
scalar RSUExampleScenario.node[54].nic.phy80211p busyTime 2.2307692307692e-05
scalar RSUExampleScenario.node[54].nic.mac1609_4 ReceivedUnicastPackets 0
scalar RSUExampleScenario.node[54].nic.mac1609_4 ReceivedBroadcasts 4
scalar RSUExampleScenario.node[54].nic.mac1609_4 SentPackets 1
scalar RSUExampleScenario.node[54].nic.mac1609_4 SentAcknowledgements 0
scalar RSUExampleScenario.node[54].nic.mac1609_4 RetriesExceeded 0
scalar RSUExampleScenario.node[54].nic.mac1609_4 SNIRLostPackets 1
scalar RSUExampleScenario.node[54].nic.mac1609_4 RXTXLostPackets 0
scalar RSUExampleScenario.node[54].nic.mac1609_4 TotalLostPackets 1
scalar RSUExampleScenario.node[54].nic.mac1609_4 DroppedPacketsInMac 0
scalar RSUExampleScenario.node[54].nic.mac1609_4 TooLittleTime 0
scalar RSUExampleScenario.node[54].nic.mac1609_4 TimesIntoBackoff 1
scalar RSUExampleScenario.node[54].nic.mac1609_4 SlotsBackoff 0
scalar RSUExampleScenario.node[54].nic.mac1609_4 NumInternalContention 0
scalar RSUExampleScenario.node[54].nic.mac1609_4 totalBusyTime 0.001393
scalar RSUExampleScenario.node[54].nic.mac1609_4 retriesExceeded:count 0
attr source org_car2x_veins_modules_mac_sigRetriesExceeded
scalar RSUExampleScenario.node[54].nic.mac1609_4 sentAcks:count 0
attr source org_car2x_veins_modules_mac_sigSentAck
scalar RSUExampleScenario.node[54].nic.mac1609_4 sentPackets:count 1
attr source org_car2x_veins_modules_mac_sigSentPacket
scalar RSUExampleScenario.node[54].nic.mac1609_4 collisions:count 0
attr source org_car2x_veins_modules_mac_sigCollision
scalar RSUExampleScenario.node[54].nic.mac1609_4 channelBusy:timeavg 2.6788461538462e-05
attr source org_car2x_veins_modules_mac_sigChannelBusy
scalar RSUExampleScenario.node[54].veinsmobility startTime 59
scalar RSUExampleScenario.node[54].veinsmobility totalTime 51
scalar RSUExampleScenario.node[54].veinsmobility stopTime 111
scalar RSUExampleScenario.node[54].veinsmobility minSpeed 4.0481674489173
scalar RSUExampleScenario.node[54].veinsmobility maxSpeed 7.6681853861968
scalar RSUExampleScenario.node[54].veinsmobility totalDistance 376.92744696686
scalar RSUExampleScenario.node[54].veinsmobility totalCO2Emission 83.823889766661
scalar RSUExampleScenario.node[12].appl generatedWSMs 1
scalar RSUExampleScenario.node[12].appl receivedWSMs 9
scalar RSUExampleScenario.node[12].appl generatedBSMs 0
scalar RSUExampleScenario.node[12].appl receivedBSMs 0
scalar RSUExampleScenario.node[12].appl generatedWSAs 0
scalar RSUExampleScenario.node[12].appl receivedWSAs 0
scalar RSUExampleScenario.node[12].nic.phy80211p busyTime 2.0470588235294e-05
scalar RSUExampleScenario.node[12].nic.mac1609_4 ReceivedUnicastPackets 0
scalar RSUExampleScenario.node[12].nic.mac1609_4 ReceivedBroadcasts 9
scalar RSUExampleScenario.node[12].nic.mac1609_4 SentPackets 1
scalar RSUExampleScenario.node[12].nic.mac1609_4 SentAcknowledgements 0
scalar RSUExampleScenario.node[12].nic.mac1609_4 RetriesExceeded 0
scalar RSUExampleScenario.node[12].nic.mac1609_4 SNIRLostPackets 0
scalar RSUExampleScenario.node[12].nic.mac1609_4 RXTXLostPackets 0
scalar RSUExampleScenario.node[12].nic.mac1609_4 TotalLostPackets 0
scalar RSUExampleScenario.node[12].nic.mac1609_4 DroppedPacketsInMac 0
scalar RSUExampleScenario.node[12].nic.mac1609_4 TooLittleTime 0
scalar RSUExampleScenario.node[12].nic.mac1609_4 TimesIntoBackoff 1
scalar RSUExampleScenario.node[12].nic.mac1609_4 SlotsBackoff 2
scalar RSUExampleScenario.node[12].nic.mac1609_4 NumInternalContention 0
scalar RSUExampleScenario.node[12].nic.mac1609_4 totalBusyTime 0.002321
scalar RSUExampleScenario.node[12].nic.mac1609_4 retriesExceeded:count 0
attr source org_car2x_veins_modules_mac_sigRetriesExceeded
scalar RSUExampleScenario.node[12].nic.mac1609_4 sentAcks:count 0
attr source org_car2x_veins_modules_mac_sigSentAck
scalar RSUExampleScenario.node[12].nic.mac1609_4 sentPackets:count 1
attr source org_car2x_veins_modules_mac_sigSentPacket
scalar RSUExampleScenario.node[12].nic.mac1609_4 collisions:count 0
attr source org_car2x_veins_modules_mac_sigCollision
scalar RSUExampleScenario.node[12].nic.mac1609_4 channelBusy:timeavg 2.2754901960784e-05
attr source org_car2x_veins_modules_mac_sigChannelBusy
scalar RSUExampleScenario.node[12].veinsmobility startTime 14
scalar RSUExampleScenario.node[12].veinsmobility totalTime 101
scalar RSUExampleScenario.node[12].veinsmobility stopTime 116
scalar RSUExampleScenario.node[12].veinsmobility minSpeed 0
scalar RSUExampleScenario.node[12].veinsmobility maxSpeed 7.7517257988272
scalar RSUExampleScenario.node[12].veinsmobility totalDistance 172.74650805926
scalar RSUExampleScenario.node[12].veinsmobility totalCO2Emission 128.05602200627
scalar RSUExampleScenario.node[33].appl generatedWSMs 1
scalar RSUExampleScenario.node[33].appl receivedWSMs 4
scalar RSUExampleScenario.node[33].appl generatedBSMs 0
scalar RSUExampleScenario.node[33].appl receivedBSMs 0
scalar RSUExampleScenario.node[33].appl generatedWSAs 0
scalar RSUExampleScenario.node[33].appl receivedWSAs 0
scalar RSUExampleScenario.node[33].nic.phy80211p busyTime 1.6571428571429e-05
scalar RSUExampleScenario.node[33].nic.mac1609_4 ReceivedUnicastPackets 0
scalar RSUExampleScenario.node[33].nic.mac1609_4 ReceivedBroadcasts 4
scalar RSUExampleScenario.node[33].nic.mac1609_4 SentPackets 1
scalar RSUExampleScenario.node[33].nic.mac1609_4 SentAcknowledgements 0
scalar RSUExampleScenario.node[33].nic.mac1609_4 RetriesExceeded 0
scalar RSUExampleScenario.node[33].nic.mac1609_4 SNIRLostPackets 2
scalar RSUExampleScenario.node[33].nic.mac1609_4 RXTXLostPackets 0
scalar RSUExampleScenario.node[33].nic.mac1609_4 TotalLostPackets 2
scalar RSUExampleScenario.node[33].nic.mac1609_4 DroppedPacketsInMac 0
scalar RSUExampleScenario.node[33].nic.mac1609_4 TooLittleTime 0
scalar RSUExampleScenario.node[33].nic.mac1609_4 TimesIntoBackoff 1
scalar RSUExampleScenario.node[33].nic.mac1609_4 SlotsBackoff 0
scalar RSUExampleScenario.node[33].nic.mac1609_4 NumInternalContention 0
scalar RSUExampleScenario.node[33].nic.mac1609_4 totalBusyTime 0.001625
scalar RSUExampleScenario.node[33].nic.mac1609_4 retriesExceeded:count 0
attr source org_car2x_veins_modules_mac_sigRetriesExceeded
scalar RSUExampleScenario.node[33].nic.mac1609_4 sentAcks:count 0
attr source org_car2x_veins_modules_mac_sigSentAck
scalar RSUExampleScenario.node[33].nic.mac1609_4 sentPackets:count 1
attr source org_car2x_veins_modules_mac_sigSentPacket
scalar RSUExampleScenario.node[33].nic.mac1609_4 collisions:count 0
attr source org_car2x_veins_modules_mac_sigCollision
scalar RSUExampleScenario.node[33].nic.mac1609_4 channelBusy:timeavg 1.9345238095238e-05
attr source org_car2x_veins_modules_mac_sigChannelBusy
scalar RSUExampleScenario.node[33].veinsmobility startTime 36
scalar RSUExampleScenario.node[33].veinsmobility totalTime 83
scalar RSUExampleScenario.node[33].veinsmobility stopTime 120
scalar RSUExampleScenario.node[33].veinsmobility minSpeed 4.059813807832
scalar RSUExampleScenario.node[33].veinsmobility maxSpeed 8.2129581407661
scalar RSUExampleScenario.node[33].veinsmobility totalDistance 655.82600472337
scalar RSUExampleScenario.node[33].veinsmobility totalCO2Emission 139.09539917838
scalar RSUExampleScenario.node[52].appl generatedWSMs 1
scalar RSUExampleScenario.node[52].appl receivedWSMs 7
scalar RSUExampleScenario.node[52].appl generatedBSMs 0
scalar RSUExampleScenario.node[52].appl receivedBSMs 0
scalar RSUExampleScenario.node[52].appl generatedWSAs 0
scalar RSUExampleScenario.node[52].appl receivedWSAs 0
scalar RSUExampleScenario.node[52].nic.phy80211p busyTime 2.7294117647059e-05
scalar RSUExampleScenario.node[52].nic.mac1609_4 ReceivedUnicastPackets 0
scalar RSUExampleScenario.node[52].nic.mac1609_4 ReceivedBroadcasts 7
scalar RSUExampleScenario.node[52].nic.mac1609_4 SentPackets 1
scalar RSUExampleScenario.node[52].nic.mac1609_4 SentAcknowledgements 0
scalar RSUExampleScenario.node[52].nic.mac1609_4 RetriesExceeded 0
scalar RSUExampleScenario.node[52].nic.mac1609_4 SNIRLostPackets 1
scalar RSUExampleScenario.node[52].nic.mac1609_4 RXTXLostPackets 0
scalar RSUExampleScenario.node[52].nic.mac1609_4 TotalLostPackets 1
scalar RSUExampleScenario.node[52].nic.mac1609_4 DroppedPacketsInMac 0
scalar RSUExampleScenario.node[52].nic.mac1609_4 TooLittleTime 0
scalar RSUExampleScenario.node[52].nic.mac1609_4 TimesIntoBackoff 1
scalar RSUExampleScenario.node[52].nic.mac1609_4 SlotsBackoff 3
scalar RSUExampleScenario.node[52].nic.mac1609_4 NumInternalContention 0
scalar RSUExampleScenario.node[52].nic.mac1609_4 totalBusyTime 0.002089
scalar RSUExampleScenario.node[52].nic.mac1609_4 retriesExceeded:count 0
attr source org_car2x_veins_modules_mac_sigRetriesExceeded
scalar RSUExampleScenario.node[52].nic.mac1609_4 sentAcks:count 0
attr source org_car2x_veins_modules_mac_sigSentAck
scalar RSUExampleScenario.node[52].nic.mac1609_4 sentPackets:count 1
attr source org_car2x_veins_modules_mac_sigSentPacket
scalar RSUExampleScenario.node[52].nic.mac1609_4 collisions:count 0
attr source org_car2x_veins_modules_mac_sigCollision
scalar RSUExampleScenario.node[52].nic.mac1609_4 channelBusy:timeavg 3.0720588235294e-05
attr source org_car2x_veins_modules_mac_sigChannelBusy
scalar RSUExampleScenario.node[52].veinsmobility startTime 57
scalar RSUExampleScenario.node[52].veinsmobility totalTime 67
scalar RSUExampleScenario.node[52].veinsmobility stopTime 125
scalar RSUExampleScenario.node[52].veinsmobility minSpeed 0
scalar RSUExampleScenario.node[52].veinsmobility maxSpeed 10.576973006488
scalar RSUExampleScenario.node[52].veinsmobility totalDistance 467.26326082085
scalar RSUExampleScenario.node[52].veinsmobility totalCO2Emission 131.14931123966
scalar RSUExampleScenario.node[39].appl generatedWSMs 1
scalar RSUExampleScenario.node[39].appl receivedWSMs 8
scalar RSUExampleScenario.node[39].appl generatedBSMs 0
scalar RSUExampleScenario.node[39].appl receivedBSMs 0
scalar RSUExampleScenario.node[39].appl generatedWSAs 0
scalar RSUExampleScenario.node[39].appl receivedWSAs 0
scalar RSUExampleScenario.node[39].nic.phy80211p busyTime 2.7619047619048e-05
scalar RSUExampleScenario.node[39].nic.mac1609_4 ReceivedUnicastPackets 0
scalar RSUExampleScenario.node[39].nic.mac1609_4 ReceivedBroadcasts 8
scalar RSUExampleScenario.node[39].nic.mac1609_4 SentPackets 1
scalar RSUExampleScenario.node[39].nic.mac1609_4 SentAcknowledgements 0
scalar RSUExampleScenario.node[39].nic.mac1609_4 RetriesExceeded 0
scalar RSUExampleScenario.node[39].nic.mac1609_4 SNIRLostPackets 2
scalar RSUExampleScenario.node[39].nic.mac1609_4 RXTXLostPackets 0
scalar RSUExampleScenario.node[39].nic.mac1609_4 TotalLostPackets 2
scalar RSUExampleScenario.node[39].nic.mac1609_4 DroppedPacketsInMac 0
scalar RSUExampleScenario.node[39].nic.mac1609_4 TooLittleTime 0
scalar RSUExampleScenario.node[39].nic.mac1609_4 TimesIntoBackoff 1
scalar RSUExampleScenario.node[39].nic.mac1609_4 SlotsBackoff 2
scalar RSUExampleScenario.node[39].nic.mac1609_4 NumInternalContention 0
scalar RSUExampleScenario.node[39].nic.mac1609_4 totalBusyTime 0.002553
scalar RSUExampleScenario.node[39].nic.mac1609_4 retriesExceeded:count 0
attr source org_car2x_veins_modules_mac_sigRetriesExceeded
scalar RSUExampleScenario.node[39].nic.mac1609_4 sentAcks:count 0
attr source org_car2x_veins_modules_mac_sigSentAck
scalar RSUExampleScenario.node[39].nic.mac1609_4 sentPackets:count 1
attr source org_car2x_veins_modules_mac_sigSentPacket
scalar RSUExampleScenario.node[39].nic.mac1609_4 collisions:count 0
attr source org_car2x_veins_modules_mac_sigCollision
scalar RSUExampleScenario.node[39].nic.mac1609_4 channelBusy:timeavg 3.0392857142857e-05
attr source org_car2x_veins_modules_mac_sigChannelBusy
scalar RSUExampleScenario.node[39].veinsmobility startTime 42
scalar RSUExampleScenario.node[39].veinsmobility totalTime 83
scalar RSUExampleScenario.node[39].veinsmobility stopTime 126
scalar RSUExampleScenario.node[39].veinsmobility minSpeed 0
scalar RSUExampleScenario.node[39].veinsmobility maxSpeed 9.3389604079611
scalar RSUExampleScenario.node[39].veinsmobility totalDistance 558.38168111552
scalar RSUExampleScenario.node[39].veinsmobility totalCO2Emission 135.37729369878
scalar RSUExampleScenario.node[81].appl generatedWSMs 1
scalar RSUExampleScenario.node[81].appl receivedWSMs 2
scalar RSUExampleScenario.node[81].appl generatedBSMs 0
scalar RSUExampleScenario.node[81].appl receivedBSMs 0
scalar RSUExampleScenario.node[81].appl generatedWSAs 0
scalar RSUExampleScenario.node[81].appl receivedWSAs 0
scalar RSUExampleScenario.node[81].nic.phy80211p busyTime 1.16e-05
scalar RSUExampleScenario.node[81].nic.mac1609_4 ReceivedUnicastPackets 0
scalar RSUExampleScenario.node[81].nic.mac1609_4 ReceivedBroadcasts 2
scalar RSUExampleScenario.node[81].nic.mac1609_4 SentPackets 1
scalar RSUExampleScenario.node[81].nic.mac1609_4 SentAcknowledgements 0
scalar RSUExampleScenario.node[81].nic.mac1609_4 RetriesExceeded 0
scalar RSUExampleScenario.node[81].nic.mac1609_4 SNIRLostPackets 0
scalar RSUExampleScenario.node[81].nic.mac1609_4 RXTXLostPackets 0
scalar RSUExampleScenario.node[81].nic.mac1609_4 TotalLostPackets 0
scalar RSUExampleScenario.node[81].nic.mac1609_4 DroppedPacketsInMac 0
scalar RSUExampleScenario.node[81].nic.mac1609_4 TooLittleTime 0
scalar RSUExampleScenario.node[81].nic.mac1609_4 TimesIntoBackoff 1
scalar RSUExampleScenario.node[81].nic.mac1609_4 SlotsBackoff 2
scalar RSUExampleScenario.node[81].nic.mac1609_4 NumInternalContention 0
scalar RSUExampleScenario.node[81].nic.mac1609_4 totalBusyTime 0.000697
scalar RSUExampleScenario.node[81].nic.mac1609_4 retriesExceeded:count 0
attr source org_car2x_veins_modules_mac_sigRetriesExceeded
scalar RSUExampleScenario.node[81].nic.mac1609_4 sentAcks:count 0
attr source org_car2x_veins_modules_mac_sigSentAck
scalar RSUExampleScenario.node[81].nic.mac1609_4 sentPackets:count 1
attr source org_car2x_veins_modules_mac_sigSentPacket
scalar RSUExampleScenario.node[81].nic.mac1609_4 collisions:count 0
attr source org_car2x_veins_modules_mac_sigCollision
scalar RSUExampleScenario.node[81].nic.mac1609_4 channelBusy:timeavg 1.7425e-05
attr source org_car2x_veins_modules_mac_sigChannelBusy
scalar RSUExampleScenario.node[81].veinsmobility startTime 87
scalar RSUExampleScenario.node[81].veinsmobility totalTime 39
scalar RSUExampleScenario.node[81].veinsmobility stopTime 127
scalar RSUExampleScenario.node[81].veinsmobility minSpeed 0
scalar RSUExampleScenario.node[81].veinsmobility maxSpeed 10.212013196861
scalar RSUExampleScenario.node[81].veinsmobility totalDistance 239.79903302671
scalar RSUExampleScenario.node[81].veinsmobility totalCO2Emission 80.255388348166
scalar RSUExampleScenario.node[4].appl generatedWSMs 1
scalar RSUExampleScenario.node[4].appl receivedWSMs 9
scalar RSUExampleScenario.node[4].appl generatedBSMs 0
scalar RSUExampleScenario.node[4].appl receivedBSMs 0
scalar RSUExampleScenario.node[4].appl generatedWSAs 0
scalar RSUExampleScenario.node[4].appl receivedWSAs 0
scalar RSUExampleScenario.node[4].nic.phy80211p busyTime 2.0416e-05
scalar RSUExampleScenario.node[4].nic.mac1609_4 ReceivedUnicastPackets 0
scalar RSUExampleScenario.node[4].nic.mac1609_4 ReceivedBroadcasts 9
scalar RSUExampleScenario.node[4].nic.mac1609_4 SentPackets 1
scalar RSUExampleScenario.node[4].nic.mac1609_4 SentAcknowledgements 0
scalar RSUExampleScenario.node[4].nic.mac1609_4 RetriesExceeded 0
scalar RSUExampleScenario.node[4].nic.mac1609_4 SNIRLostPackets 2
scalar RSUExampleScenario.node[4].nic.mac1609_4 RXTXLostPackets 0
scalar RSUExampleScenario.node[4].nic.mac1609_4 TotalLostPackets 2
scalar RSUExampleScenario.node[4].nic.mac1609_4 DroppedPacketsInMac 0
scalar RSUExampleScenario.node[4].nic.mac1609_4 TooLittleTime 0
scalar RSUExampleScenario.node[4].nic.mac1609_4 TimesIntoBackoff 1
scalar RSUExampleScenario.node[4].nic.mac1609_4 SlotsBackoff 0
scalar RSUExampleScenario.node[4].nic.mac1609_4 NumInternalContention 0
scalar RSUExampleScenario.node[4].nic.mac1609_4 totalBusyTime 0.002785
scalar RSUExampleScenario.node[4].nic.mac1609_4 retriesExceeded:count 0
attr source org_car2x_veins_modules_mac_sigRetriesExceeded
scalar RSUExampleScenario.node[4].nic.mac1609_4 sentAcks:count 0
attr source org_car2x_veins_modules_mac_sigSentAck
scalar RSUExampleScenario.node[4].nic.mac1609_4 sentPackets:count 1
attr source org_car2x_veins_modules_mac_sigSentPacket
scalar RSUExampleScenario.node[4].nic.mac1609_4 collisions:count 0
attr source org_car2x_veins_modules_mac_sigCollision
scalar RSUExampleScenario.node[4].nic.mac1609_4 channelBusy:timeavg 2.228e-05
attr source org_car2x_veins_modules_mac_sigChannelBusy
scalar RSUExampleScenario.node[4].veinsmobility startTime 5
scalar RSUExampleScenario.node[4].veinsmobility totalTime 124
scalar RSUExampleScenario.node[4].veinsmobility stopTime 130
scalar RSUExampleScenario.node[4].veinsmobility minSpeed 0
scalar RSUExampleScenario.node[4].veinsmobility maxSpeed 9.8063459838358
scalar RSUExampleScenario.node[4].veinsmobility totalDistance 919.10921029195
scalar RSUExampleScenario.node[4].veinsmobility totalCO2Emission 248.13644697775
scalar RSUExampleScenario.node[26].appl generatedWSMs 1
scalar RSUExampleScenario.node[26].appl receivedWSMs 15
scalar RSUExampleScenario.node[26].appl generatedBSMs 0
scalar RSUExampleScenario.node[26].appl receivedBSMs 0
scalar RSUExampleScenario.node[26].appl generatedWSAs 0
scalar RSUExampleScenario.node[26].appl receivedWSAs 0
scalar RSUExampleScenario.node[26].nic.phy80211p busyTime 4.0543689320388e-05
scalar RSUExampleScenario.node[26].nic.mac1609_4 ReceivedUnicastPackets 0
scalar RSUExampleScenario.node[26].nic.mac1609_4 ReceivedBroadcasts 15
scalar RSUExampleScenario.node[26].nic.mac1609_4 SentPackets 1
scalar RSUExampleScenario.node[26].nic.mac1609_4 SentAcknowledgements 0
scalar RSUExampleScenario.node[26].nic.mac1609_4 RetriesExceeded 0
scalar RSUExampleScenario.node[26].nic.mac1609_4 SNIRLostPackets 3
scalar RSUExampleScenario.node[26].nic.mac1609_4 RXTXLostPackets 0
scalar RSUExampleScenario.node[26].nic.mac1609_4 TotalLostPackets 3
scalar RSUExampleScenario.node[26].nic.mac1609_4 DroppedPacketsInMac 0
scalar RSUExampleScenario.node[26].nic.mac1609_4 TooLittleTime 0
scalar RSUExampleScenario.node[26].nic.mac1609_4 TimesIntoBackoff 1
scalar RSUExampleScenario.node[26].nic.mac1609_4 SlotsBackoff 1
scalar RSUExampleScenario.node[26].nic.mac1609_4 NumInternalContention 0
scalar RSUExampleScenario.node[26].nic.mac1609_4 totalBusyTime 0.004409
scalar RSUExampleScenario.node[26].nic.mac1609_4 retriesExceeded:count 0
attr source org_car2x_veins_modules_mac_sigRetriesExceeded
scalar RSUExampleScenario.node[26].nic.mac1609_4 sentAcks:count 0
attr source org_car2x_veins_modules_mac_sigSentAck
scalar RSUExampleScenario.node[26].nic.mac1609_4 sentPackets:count 1
attr source org_car2x_veins_modules_mac_sigSentPacket
scalar RSUExampleScenario.node[26].nic.mac1609_4 collisions:count 0
attr source org_car2x_veins_modules_mac_sigCollision
scalar RSUExampleScenario.node[26].nic.mac1609_4 channelBusy:timeavg 4.2805825242718e-05
attr source org_car2x_veins_modules_mac_sigChannelBusy
scalar RSUExampleScenario.node[26].veinsmobility startTime 28
scalar RSUExampleScenario.node[26].veinsmobility totalTime 102
scalar RSUExampleScenario.node[26].veinsmobility stopTime 131
scalar RSUExampleScenario.node[26].veinsmobility minSpeed 0
scalar RSUExampleScenario.node[26].veinsmobility maxSpeed 10.853280889995
scalar RSUExampleScenario.node[26].veinsmobility totalDistance 573.49250228617
scalar RSUExampleScenario.node[26].veinsmobility totalCO2Emission 177.07186164559
scalar RSUExampleScenario.node[91].appl generatedWSMs 1
scalar RSUExampleScenario.node[91].appl receivedWSMs 5
scalar RSUExampleScenario.node[91].appl generatedBSMs 0
scalar RSUExampleScenario.node[91].appl receivedBSMs 0
scalar RSUExampleScenario.node[91].appl generatedWSAs 0
scalar RSUExampleScenario.node[91].appl receivedWSAs 0
scalar RSUExampleScenario.node[91].nic.phy80211p busyTime 3.7621621621622e-05
scalar RSUExampleScenario.node[91].nic.mac1609_4 ReceivedUnicastPackets 0
scalar RSUExampleScenario.node[91].nic.mac1609_4 ReceivedBroadcasts 5
scalar RSUExampleScenario.node[91].nic.mac1609_4 SentPackets 1
scalar RSUExampleScenario.node[91].nic.mac1609_4 SentAcknowledgements 0
scalar RSUExampleScenario.node[91].nic.mac1609_4 RetriesExceeded 0
scalar RSUExampleScenario.node[91].nic.mac1609_4 SNIRLostPackets 1
scalar RSUExampleScenario.node[91].nic.mac1609_4 RXTXLostPackets 0
scalar RSUExampleScenario.node[91].nic.mac1609_4 TotalLostPackets 1
scalar RSUExampleScenario.node[91].nic.mac1609_4 DroppedPacketsInMac 0
scalar RSUExampleScenario.node[91].nic.mac1609_4 TooLittleTime 0
scalar RSUExampleScenario.node[91].nic.mac1609_4 TimesIntoBackoff 1
scalar RSUExampleScenario.node[91].nic.mac1609_4 SlotsBackoff 2
scalar RSUExampleScenario.node[91].nic.mac1609_4 NumInternalContention 0
scalar RSUExampleScenario.node[91].nic.mac1609_4 totalBusyTime 0.001625
scalar RSUExampleScenario.node[91].nic.mac1609_4 retriesExceeded:count 0
attr source org_car2x_veins_modules_mac_sigRetriesExceeded
scalar RSUExampleScenario.node[91].nic.mac1609_4 sentAcks:count 0
attr source org_car2x_veins_modules_mac_sigSentAck
scalar RSUExampleScenario.node[91].nic.mac1609_4 sentPackets:count 1
attr source org_car2x_veins_modules_mac_sigSentPacket
scalar RSUExampleScenario.node[91].nic.mac1609_4 collisions:count 0
attr source org_car2x_veins_modules_mac_sigCollision
scalar RSUExampleScenario.node[91].nic.mac1609_4 channelBusy:timeavg 4.3918918918919e-05
attr source org_car2x_veins_modules_mac_sigChannelBusy
scalar RSUExampleScenario.node[91].veinsmobility startTime 99
scalar RSUExampleScenario.node[91].veinsmobility totalTime 36
scalar RSUExampleScenario.node[91].veinsmobility stopTime 136
scalar RSUExampleScenario.node[91].veinsmobility minSpeed 0
scalar RSUExampleScenario.node[91].veinsmobility maxSpeed 7.5183413106454
scalar RSUExampleScenario.node[91].veinsmobility totalDistance 222.84943337947
scalar RSUExampleScenario.node[91].veinsmobility totalCO2Emission 69.572745505064
scalar RSUExampleScenario.node[37].appl generatedWSMs 1
scalar RSUExampleScenario.node[37].appl receivedWSMs 17
scalar RSUExampleScenario.node[37].appl generatedBSMs 0
scalar RSUExampleScenario.node[37].appl receivedBSMs 0
scalar RSUExampleScenario.node[37].appl generatedWSAs 0
scalar RSUExampleScenario.node[37].appl receivedWSAs 0
scalar RSUExampleScenario.node[37].nic.phy80211p busyTime 4.872e-05
scalar RSUExampleScenario.node[37].nic.mac1609_4 ReceivedUnicastPackets 0
scalar RSUExampleScenario.node[37].nic.mac1609_4 ReceivedBroadcasts 17
scalar RSUExampleScenario.node[37].nic.mac1609_4 SentPackets 1
scalar RSUExampleScenario.node[37].nic.mac1609_4 SentAcknowledgements 0
scalar RSUExampleScenario.node[37].nic.mac1609_4 RetriesExceeded 0
scalar RSUExampleScenario.node[37].nic.mac1609_4 SNIRLostPackets 4
scalar RSUExampleScenario.node[37].nic.mac1609_4 RXTXLostPackets 0
scalar RSUExampleScenario.node[37].nic.mac1609_4 TotalLostPackets 4
scalar RSUExampleScenario.node[37].nic.mac1609_4 DroppedPacketsInMac 0
scalar RSUExampleScenario.node[37].nic.mac1609_4 TooLittleTime 0
scalar RSUExampleScenario.node[37].nic.mac1609_4 TimesIntoBackoff 1
scalar RSUExampleScenario.node[37].nic.mac1609_4 SlotsBackoff 0
scalar RSUExampleScenario.node[37].nic.mac1609_4 NumInternalContention 0
scalar RSUExampleScenario.node[37].nic.mac1609_4 totalBusyTime 0.004873
scalar RSUExampleScenario.node[37].nic.mac1609_4 retriesExceeded:count 0
attr source org_car2x_veins_modules_mac_sigRetriesExceeded
scalar RSUExampleScenario.node[37].nic.mac1609_4 sentAcks:count 0
attr source org_car2x_veins_modules_mac_sigSentAck
scalar RSUExampleScenario.node[37].nic.mac1609_4 sentPackets:count 1
attr source org_car2x_veins_modules_mac_sigSentPacket
scalar RSUExampleScenario.node[37].nic.mac1609_4 collisions:count 0
attr source org_car2x_veins_modules_mac_sigCollision
scalar RSUExampleScenario.node[37].nic.mac1609_4 channelBusy:timeavg 4.873e-05
attr source org_car2x_veins_modules_mac_sigChannelBusy
scalar RSUExampleScenario.node[37].veinsmobility startTime 40
scalar RSUExampleScenario.node[37].veinsmobility totalTime 99
scalar RSUExampleScenario.node[37].veinsmobility stopTime 140
scalar RSUExampleScenario.node[37].veinsmobility minSpeed 0
scalar RSUExampleScenario.node[37].veinsmobility maxSpeed 9.7830211497639
scalar RSUExampleScenario.node[37].veinsmobility totalDistance 511.9168012464
scalar RSUExampleScenario.node[37].veinsmobility totalCO2Emission 153.59578578219
scalar RSUExampleScenario.node[51].appl generatedWSMs 0
scalar RSUExampleScenario.node[51].appl receivedWSMs 0
scalar RSUExampleScenario.node[51].appl generatedBSMs 0
scalar RSUExampleScenario.node[51].appl receivedBSMs 0
scalar RSUExampleScenario.node[51].appl generatedWSAs 0
scalar RSUExampleScenario.node[51].appl receivedWSAs 0
scalar RSUExampleScenario.node[51].nic.phy80211p busyTime 0
scalar RSUExampleScenario.node[51].nic.mac1609_4 ReceivedUnicastPackets 0
scalar RSUExampleScenario.node[51].nic.mac1609_4 ReceivedBroadcasts 0
scalar RSUExampleScenario.node[51].nic.mac1609_4 SentPackets 0
scalar RSUExampleScenario.node[51].nic.mac1609_4 SentAcknowledgements 0
scalar RSUExampleScenario.node[51].nic.mac1609_4 RetriesExceeded 0
scalar RSUExampleScenario.node[51].nic.mac1609_4 SNIRLostPackets 0
scalar RSUExampleScenario.node[51].nic.mac1609_4 RXTXLostPackets 0
scalar RSUExampleScenario.node[51].nic.mac1609_4 TotalLostPackets 0
scalar RSUExampleScenario.node[51].nic.mac1609_4 DroppedPacketsInMac 0
scalar RSUExampleScenario.node[51].nic.mac1609_4 TooLittleTime 0
scalar RSUExampleScenario.node[51].nic.mac1609_4 TimesIntoBackoff 0
scalar RSUExampleScenario.node[51].nic.mac1609_4 SlotsBackoff 0
scalar RSUExampleScenario.node[51].nic.mac1609_4 NumInternalContention 0
scalar RSUExampleScenario.node[51].nic.mac1609_4 totalBusyTime 0
scalar RSUExampleScenario.node[51].nic.mac1609_4 retriesExceeded:count 0
attr source org_car2x_veins_modules_mac_sigRetriesExceeded
scalar RSUExampleScenario.node[51].nic.mac1609_4 sentAcks:count 0
attr source org_car2x_veins_modules_mac_sigSentAck
scalar RSUExampleScenario.node[51].nic.mac1609_4 sentPackets:count 0
attr source org_car2x_veins_modules_mac_sigSentPacket
scalar RSUExampleScenario.node[51].nic.mac1609_4 collisions:count 0
attr source org_car2x_veins_modules_mac_sigCollision
scalar RSUExampleScenario.node[51].nic.mac1609_4 channelBusy:timeavg 0
attr source org_car2x_veins_modules_mac_sigChannelBusy
scalar RSUExampleScenario.node[51].veinsmobility startTime 56
scalar RSUExampleScenario.node[51].veinsmobility totalTime 94
scalar RSUExampleScenario.node[51].veinsmobility stopTime 151
scalar RSUExampleScenario.node[51].veinsmobility minSpeed 4.2581227833976
scalar RSUExampleScenario.node[51].veinsmobility maxSpeed 12.327864929997
scalar RSUExampleScenario.node[51].veinsmobility totalDistance 862.20390375625
scalar RSUExampleScenario.node[51].veinsmobility totalCO2Emission 186.66393683907
scalar RSUExampleScenario.node[73].appl generatedWSMs 1
scalar RSUExampleScenario.node[73].appl receivedWSMs 3
scalar RSUExampleScenario.node[73].appl generatedBSMs 0
scalar RSUExampleScenario.node[73].appl receivedBSMs 0
scalar RSUExampleScenario.node[73].appl generatedWSAs 0
scalar RSUExampleScenario.node[73].appl receivedWSAs 0
scalar RSUExampleScenario.node[73].nic.phy80211p busyTime 9.5342465753425e-06
scalar RSUExampleScenario.node[73].nic.mac1609_4 ReceivedUnicastPackets 0
scalar RSUExampleScenario.node[73].nic.mac1609_4 ReceivedBroadcasts 3
scalar RSUExampleScenario.node[73].nic.mac1609_4 SentPackets 1
scalar RSUExampleScenario.node[73].nic.mac1609_4 SentAcknowledgements 0
scalar RSUExampleScenario.node[73].nic.mac1609_4 RetriesExceeded 0
scalar RSUExampleScenario.node[73].nic.mac1609_4 SNIRLostPackets 0
scalar RSUExampleScenario.node[73].nic.mac1609_4 RXTXLostPackets 0
scalar RSUExampleScenario.node[73].nic.mac1609_4 TotalLostPackets 0
scalar RSUExampleScenario.node[73].nic.mac1609_4 DroppedPacketsInMac 0
scalar RSUExampleScenario.node[73].nic.mac1609_4 TooLittleTime 0
scalar RSUExampleScenario.node[73].nic.mac1609_4 TimesIntoBackoff 1
scalar RSUExampleScenario.node[73].nic.mac1609_4 SlotsBackoff 2
scalar RSUExampleScenario.node[73].nic.mac1609_4 NumInternalContention 0
scalar RSUExampleScenario.node[73].nic.mac1609_4 totalBusyTime 0.000929
scalar RSUExampleScenario.node[73].nic.mac1609_4 retriesExceeded:count 0
attr source org_car2x_veins_modules_mac_sigRetriesExceeded
scalar RSUExampleScenario.node[73].nic.mac1609_4 sentAcks:count 0
attr source org_car2x_veins_modules_mac_sigSentAck
scalar RSUExampleScenario.node[73].nic.mac1609_4 sentPackets:count 1
attr source org_car2x_veins_modules_mac_sigSentPacket
scalar RSUExampleScenario.node[73].nic.mac1609_4 collisions:count 0
attr source org_car2x_veins_modules_mac_sigCollision
scalar RSUExampleScenario.node[73].nic.mac1609_4 channelBusy:timeavg 1.272602739726e-05
attr source org_car2x_veins_modules_mac_sigChannelBusy
scalar RSUExampleScenario.node[73].veinsmobility startTime 79
scalar RSUExampleScenario.node[73].veinsmobility totalTime 72
scalar RSUExampleScenario.node[73].veinsmobility stopTime 152
scalar RSUExampleScenario.node[73].veinsmobility minSpeed 0
scalar RSUExampleScenario.node[73].veinsmobility maxSpeed 10.095872811249
scalar RSUExampleScenario.node[73].veinsmobility totalDistance 479.19426104486
scalar RSUExampleScenario.node[73].veinsmobility totalCO2Emission 125.07508752485
scalar RSUExampleScenario.node[118].appl generatedWSMs 0
scalar RSUExampleScenario.node[118].appl receivedWSMs 0
scalar RSUExampleScenario.node[118].appl generatedBSMs 0
scalar RSUExampleScenario.node[118].appl receivedBSMs 0
scalar RSUExampleScenario.node[118].appl generatedWSAs 0
scalar RSUExampleScenario.node[118].appl receivedWSAs 0
scalar RSUExampleScenario.node[118].nic.phy80211p busyTime 0
scalar RSUExampleScenario.node[118].nic.mac1609_4 ReceivedUnicastPackets 0
scalar RSUExampleScenario.node[118].nic.mac1609_4 ReceivedBroadcasts 0
scalar RSUExampleScenario.node[118].nic.mac1609_4 SentPackets 0
scalar RSUExampleScenario.node[118].nic.mac1609_4 SentAcknowledgements 0
scalar RSUExampleScenario.node[118].nic.mac1609_4 RetriesExceeded 0
scalar RSUExampleScenario.node[118].nic.mac1609_4 SNIRLostPackets 0
scalar RSUExampleScenario.node[118].nic.mac1609_4 RXTXLostPackets 0
scalar RSUExampleScenario.node[118].nic.mac1609_4 TotalLostPackets 0
scalar RSUExampleScenario.node[118].nic.mac1609_4 DroppedPacketsInMac 0
scalar RSUExampleScenario.node[118].nic.mac1609_4 TooLittleTime 0
scalar RSUExampleScenario.node[118].nic.mac1609_4 TimesIntoBackoff 0
scalar RSUExampleScenario.node[118].nic.mac1609_4 SlotsBackoff 0
scalar RSUExampleScenario.node[118].nic.mac1609_4 NumInternalContention 0
scalar RSUExampleScenario.node[118].nic.mac1609_4 totalBusyTime 0
scalar RSUExampleScenario.node[118].nic.mac1609_4 retriesExceeded:count 0
attr source org_car2x_veins_modules_mac_sigRetriesExceeded
scalar RSUExampleScenario.node[118].nic.mac1609_4 sentAcks:count 0
attr source org_car2x_veins_modules_mac_sigSentAck
scalar RSUExampleScenario.node[118].nic.mac1609_4 sentPackets:count 0
attr source org_car2x_veins_modules_mac_sigSentPacket
scalar RSUExampleScenario.node[118].nic.mac1609_4 collisions:count 0
attr source org_car2x_veins_modules_mac_sigCollision
scalar RSUExampleScenario.node[118].nic.mac1609_4 channelBusy:timeavg 0
attr source org_car2x_veins_modules_mac_sigChannelBusy
scalar RSUExampleScenario.node[118].veinsmobility startTime 131
scalar RSUExampleScenario.node[118].veinsmobility totalTime 21
scalar RSUExampleScenario.node[118].veinsmobility stopTime 153
scalar RSUExampleScenario.node[118].veinsmobility minSpeed 3.95819580163
scalar RSUExampleScenario.node[118].veinsmobility maxSpeed 8.8638146309493
scalar RSUExampleScenario.node[118].veinsmobility totalDistance 172.5962985156
scalar RSUExampleScenario.node[118].veinsmobility totalCO2Emission 40.250313960647
scalar RSUExampleScenario.node[42].appl generatedWSMs 1
scalar RSUExampleScenario.node[42].appl receivedWSMs 7
scalar RSUExampleScenario.node[42].appl generatedBSMs 0
scalar RSUExampleScenario.node[42].appl receivedBSMs 0
scalar RSUExampleScenario.node[42].appl generatedWSAs 0
scalar RSUExampleScenario.node[42].appl receivedWSAs 0
scalar RSUExampleScenario.node[42].nic.phy80211p busyTime 1.702752293578e-05
scalar RSUExampleScenario.node[42].nic.mac1609_4 ReceivedUnicastPackets 0
scalar RSUExampleScenario.node[42].nic.mac1609_4 ReceivedBroadcasts 7
scalar RSUExampleScenario.node[42].nic.mac1609_4 SentPackets 1
scalar RSUExampleScenario.node[42].nic.mac1609_4 SentAcknowledgements 0
scalar RSUExampleScenario.node[42].nic.mac1609_4 RetriesExceeded 0
scalar RSUExampleScenario.node[42].nic.mac1609_4 SNIRLostPackets 1
scalar RSUExampleScenario.node[42].nic.mac1609_4 RXTXLostPackets 0
scalar RSUExampleScenario.node[42].nic.mac1609_4 TotalLostPackets 1
scalar RSUExampleScenario.node[42].nic.mac1609_4 DroppedPacketsInMac 0
scalar RSUExampleScenario.node[42].nic.mac1609_4 TooLittleTime 0
scalar RSUExampleScenario.node[42].nic.mac1609_4 TimesIntoBackoff 1
scalar RSUExampleScenario.node[42].nic.mac1609_4 SlotsBackoff 2
scalar RSUExampleScenario.node[42].nic.mac1609_4 NumInternalContention 0
scalar RSUExampleScenario.node[42].nic.mac1609_4 totalBusyTime 0.002089
scalar RSUExampleScenario.node[42].nic.mac1609_4 retriesExceeded:count 0
attr source org_car2x_veins_modules_mac_sigRetriesExceeded
scalar RSUExampleScenario.node[42].nic.mac1609_4 sentAcks:count 0
attr source org_car2x_veins_modules_mac_sigSentAck
scalar RSUExampleScenario.node[42].nic.mac1609_4 sentPackets:count 1
attr source org_car2x_veins_modules_mac_sigSentPacket
scalar RSUExampleScenario.node[42].nic.mac1609_4 collisions:count 0
attr source org_car2x_veins_modules_mac_sigCollision
scalar RSUExampleScenario.node[42].nic.mac1609_4 channelBusy:timeavg 1.9165137614679e-05
attr source org_car2x_veins_modules_mac_sigChannelBusy
scalar RSUExampleScenario.node[42].veinsmobility startTime 45
scalar RSUExampleScenario.node[42].veinsmobility totalTime 108
scalar RSUExampleScenario.node[42].veinsmobility stopTime 154
scalar RSUExampleScenario.node[42].veinsmobility minSpeed 0
scalar RSUExampleScenario.node[42].veinsmobility maxSpeed 7.5644794744751
scalar RSUExampleScenario.node[42].veinsmobility totalDistance 569.01436829085
scalar RSUExampleScenario.node[42].veinsmobility totalCO2Emission 164.88583193459
scalar RSUExampleScenario.node[1].appl generatedWSMs 1
scalar RSUExampleScenario.node[1].appl receivedWSMs 17
scalar RSUExampleScenario.node[1].appl generatedBSMs 0
scalar RSUExampleScenario.node[1].appl receivedBSMs 0
scalar RSUExampleScenario.node[1].appl generatedWSAs 0
scalar RSUExampleScenario.node[1].appl receivedWSAs 0
scalar RSUExampleScenario.node[1].nic.phy80211p busyTime 2.655421686747e-05
scalar RSUExampleScenario.node[1].nic.mac1609_4 ReceivedUnicastPackets 0
scalar RSUExampleScenario.node[1].nic.mac1609_4 ReceivedBroadcasts 17
scalar RSUExampleScenario.node[1].nic.mac1609_4 SentPackets 1
scalar RSUExampleScenario.node[1].nic.mac1609_4 SentAcknowledgements 0
scalar RSUExampleScenario.node[1].nic.mac1609_4 RetriesExceeded 0
scalar RSUExampleScenario.node[1].nic.mac1609_4 SNIRLostPackets 2
scalar RSUExampleScenario.node[1].nic.mac1609_4 RXTXLostPackets 0
scalar RSUExampleScenario.node[1].nic.mac1609_4 TotalLostPackets 2
scalar RSUExampleScenario.node[1].nic.mac1609_4 DroppedPacketsInMac 0
scalar RSUExampleScenario.node[1].nic.mac1609_4 TooLittleTime 0
scalar RSUExampleScenario.node[1].nic.mac1609_4 TimesIntoBackoff 1
scalar RSUExampleScenario.node[1].nic.mac1609_4 SlotsBackoff 3
scalar RSUExampleScenario.node[1].nic.mac1609_4 NumInternalContention 0
scalar RSUExampleScenario.node[1].nic.mac1609_4 totalBusyTime 0.004641
scalar RSUExampleScenario.node[1].nic.mac1609_4 retriesExceeded:count 0
attr source org_car2x_veins_modules_mac_sigRetriesExceeded
scalar RSUExampleScenario.node[1].nic.mac1609_4 sentAcks:count 0
attr source org_car2x_veins_modules_mac_sigSentAck
scalar RSUExampleScenario.node[1].nic.mac1609_4 sentPackets:count 1
attr source org_car2x_veins_modules_mac_sigSentPacket
scalar RSUExampleScenario.node[1].nic.mac1609_4 collisions:count 0
attr source org_car2x_veins_modules_mac_sigCollision
scalar RSUExampleScenario.node[1].nic.mac1609_4 channelBusy:timeavg 2.7957831325301e-05
attr source org_car2x_veins_modules_mac_sigChannelBusy
scalar RSUExampleScenario.node[1].veinsmobility startTime 2
scalar RSUExampleScenario.node[1].veinsmobility totalTime 165
scalar RSUExampleScenario.node[1].veinsmobility stopTime 168
scalar RSUExampleScenario.node[1].veinsmobility minSpeed 0
scalar RSUExampleScenario.node[1].veinsmobility maxSpeed 11.646062122423
scalar RSUExampleScenario.node[1].veinsmobility totalDistance 1052.216301126
scalar RSUExampleScenario.node[1].veinsmobility totalCO2Emission 279.43202961618
scalar RSUExampleScenario.node[32].appl generatedWSMs 1
scalar RSUExampleScenario.node[32].appl receivedWSMs 13
scalar RSUExampleScenario.node[32].appl generatedBSMs 0
scalar RSUExampleScenario.node[32].appl receivedBSMs 0
scalar RSUExampleScenario.node[32].appl generatedWSAs 0
scalar RSUExampleScenario.node[32].appl receivedWSAs 0
scalar RSUExampleScenario.node[32].nic.phy80211p busyTime 2.5777777777778e-05
scalar RSUExampleScenario.node[32].nic.mac1609_4 ReceivedUnicastPackets 0
scalar RSUExampleScenario.node[32].nic.mac1609_4 ReceivedBroadcasts 13
scalar RSUExampleScenario.node[32].nic.mac1609_4 SentPackets 1
scalar RSUExampleScenario.node[32].nic.mac1609_4 SentAcknowledgements 0
scalar RSUExampleScenario.node[32].nic.mac1609_4 RetriesExceeded 0
scalar RSUExampleScenario.node[32].nic.mac1609_4 SNIRLostPackets 2
scalar RSUExampleScenario.node[32].nic.mac1609_4 RXTXLostPackets 0
scalar RSUExampleScenario.node[32].nic.mac1609_4 TotalLostPackets 2
scalar RSUExampleScenario.node[32].nic.mac1609_4 DroppedPacketsInMac 0
scalar RSUExampleScenario.node[32].nic.mac1609_4 TooLittleTime 0
scalar RSUExampleScenario.node[32].nic.mac1609_4 TimesIntoBackoff 1
scalar RSUExampleScenario.node[32].nic.mac1609_4 SlotsBackoff 3
scalar RSUExampleScenario.node[32].nic.mac1609_4 NumInternalContention 0
scalar RSUExampleScenario.node[32].nic.mac1609_4 totalBusyTime 0.003713
scalar RSUExampleScenario.node[32].nic.mac1609_4 retriesExceeded:count 0
attr source org_car2x_veins_modules_mac_sigRetriesExceeded
scalar RSUExampleScenario.node[32].nic.mac1609_4 sentAcks:count 0
attr source org_car2x_veins_modules_mac_sigSentAck
scalar RSUExampleScenario.node[32].nic.mac1609_4 sentPackets:count 1
attr source org_car2x_veins_modules_mac_sigSentPacket
scalar RSUExampleScenario.node[32].nic.mac1609_4 collisions:count 0
attr source org_car2x_veins_modules_mac_sigCollision
scalar RSUExampleScenario.node[32].nic.mac1609_4 channelBusy:timeavg 2.7503703703704e-05
attr source org_car2x_veins_modules_mac_sigChannelBusy
scalar RSUExampleScenario.node[32].veinsmobility startTime 34
scalar RSUExampleScenario.node[32].veinsmobility totalTime 134
scalar RSUExampleScenario.node[32].veinsmobility stopTime 169
scalar RSUExampleScenario.node[32].veinsmobility minSpeed 0
scalar RSUExampleScenario.node[32].veinsmobility maxSpeed 7.0193219163776
scalar RSUExampleScenario.node[32].veinsmobility totalDistance 760.55407208688
scalar RSUExampleScenario.node[32].veinsmobility totalCO2Emission 206.92233431598
scalar RSUExampleScenario.node[75].appl generatedWSMs 1
scalar RSUExampleScenario.node[75].appl receivedWSMs 6
scalar RSUExampleScenario.node[75].appl generatedBSMs 0
scalar RSUExampleScenario.node[75].appl receivedBSMs 0
scalar RSUExampleScenario.node[75].appl generatedWSAs 0
scalar RSUExampleScenario.node[75].appl receivedWSAs 0
scalar RSUExampleScenario.node[75].nic.phy80211p busyTime 2.0622222222222e-05
scalar RSUExampleScenario.node[75].nic.mac1609_4 ReceivedUnicastPackets 0
scalar RSUExampleScenario.node[75].nic.mac1609_4 ReceivedBroadcasts 6
scalar RSUExampleScenario.node[75].nic.mac1609_4 SentPackets 1
scalar RSUExampleScenario.node[75].nic.mac1609_4 SentAcknowledgements 0
scalar RSUExampleScenario.node[75].nic.mac1609_4 RetriesExceeded 0
scalar RSUExampleScenario.node[75].nic.mac1609_4 SNIRLostPackets 2
scalar RSUExampleScenario.node[75].nic.mac1609_4 RXTXLostPackets 0
scalar RSUExampleScenario.node[75].nic.mac1609_4 TotalLostPackets 2
scalar RSUExampleScenario.node[75].nic.mac1609_4 DroppedPacketsInMac 0
scalar RSUExampleScenario.node[75].nic.mac1609_4 TooLittleTime 0
scalar RSUExampleScenario.node[75].nic.mac1609_4 TimesIntoBackoff 1
scalar RSUExampleScenario.node[75].nic.mac1609_4 SlotsBackoff 0
scalar RSUExampleScenario.node[75].nic.mac1609_4 NumInternalContention 0
scalar RSUExampleScenario.node[75].nic.mac1609_4 totalBusyTime 0.002089
scalar RSUExampleScenario.node[75].nic.mac1609_4 retriesExceeded:count 0
attr source org_car2x_veins_modules_mac_sigRetriesExceeded
scalar RSUExampleScenario.node[75].nic.mac1609_4 sentAcks:count 0
attr source org_car2x_veins_modules_mac_sigSentAck
scalar RSUExampleScenario.node[75].nic.mac1609_4 sentPackets:count 1
attr source org_car2x_veins_modules_mac_sigSentPacket
scalar RSUExampleScenario.node[75].nic.mac1609_4 collisions:count 0
attr source org_car2x_veins_modules_mac_sigCollision
scalar RSUExampleScenario.node[75].nic.mac1609_4 channelBusy:timeavg 2.3211111111111e-05
attr source org_car2x_veins_modules_mac_sigChannelBusy
scalar RSUExampleScenario.node[75].veinsmobility startTime 81
scalar RSUExampleScenario.node[75].veinsmobility totalTime 89
scalar RSUExampleScenario.node[75].veinsmobility stopTime 171
scalar RSUExampleScenario.node[75].veinsmobility minSpeed 0
scalar RSUExampleScenario.node[75].veinsmobility maxSpeed 13.501363080566
scalar RSUExampleScenario.node[75].veinsmobility totalDistance 557.09168265704
scalar RSUExampleScenario.node[75].veinsmobility totalCO2Emission 191.06698819509
scalar RSUExampleScenario.node[21].appl generatedWSMs 1
scalar RSUExampleScenario.node[21].appl receivedWSMs 22
scalar RSUExampleScenario.node[21].appl generatedBSMs 0
scalar RSUExampleScenario.node[21].appl receivedBSMs 0
scalar RSUExampleScenario.node[21].appl generatedWSAs 0
scalar RSUExampleScenario.node[21].appl receivedWSAs 0
scalar RSUExampleScenario.node[21].nic.phy80211p busyTime 3.6155844155844e-05
scalar RSUExampleScenario.node[21].nic.mac1609_4 ReceivedUnicastPackets 0
scalar RSUExampleScenario.node[21].nic.mac1609_4 ReceivedBroadcasts 22
scalar RSUExampleScenario.node[21].nic.mac1609_4 SentPackets 1
scalar RSUExampleScenario.node[21].nic.mac1609_4 SentAcknowledgements 0
scalar RSUExampleScenario.node[21].nic.mac1609_4 RetriesExceeded 0
scalar RSUExampleScenario.node[21].nic.mac1609_4 SNIRLostPackets 2
scalar RSUExampleScenario.node[21].nic.mac1609_4 RXTXLostPackets 0
scalar RSUExampleScenario.node[21].nic.mac1609_4 TotalLostPackets 2
scalar RSUExampleScenario.node[21].nic.mac1609_4 DroppedPacketsInMac 0
scalar RSUExampleScenario.node[21].nic.mac1609_4 TooLittleTime 0
scalar RSUExampleScenario.node[21].nic.mac1609_4 TimesIntoBackoff 1
scalar RSUExampleScenario.node[21].nic.mac1609_4 SlotsBackoff 1
scalar RSUExampleScenario.node[21].nic.mac1609_4 NumInternalContention 0
scalar RSUExampleScenario.node[21].nic.mac1609_4 totalBusyTime 0.005801
scalar RSUExampleScenario.node[21].nic.mac1609_4 retriesExceeded:count 0
attr source org_car2x_veins_modules_mac_sigRetriesExceeded
scalar RSUExampleScenario.node[21].nic.mac1609_4 sentAcks:count 0
attr source org_car2x_veins_modules_mac_sigSentAck
scalar RSUExampleScenario.node[21].nic.mac1609_4 sentPackets:count 1
attr source org_car2x_veins_modules_mac_sigSentPacket
scalar RSUExampleScenario.node[21].nic.mac1609_4 collisions:count 0
attr source org_car2x_veins_modules_mac_sigCollision
scalar RSUExampleScenario.node[21].nic.mac1609_4 channelBusy:timeavg 3.7668831168831e-05
attr source org_car2x_veins_modules_mac_sigChannelBusy
scalar RSUExampleScenario.node[21].veinsmobility startTime 23
scalar RSUExampleScenario.node[21].veinsmobility totalTime 153
scalar RSUExampleScenario.node[21].veinsmobility stopTime 177
scalar RSUExampleScenario.node[21].veinsmobility minSpeed 0
scalar RSUExampleScenario.node[21].veinsmobility maxSpeed 9.8209935877258
scalar RSUExampleScenario.node[21].veinsmobility totalDistance 587.97338485934
scalar RSUExampleScenario.node[21].veinsmobility totalCO2Emission 226.37501549471
scalar RSUExampleScenario.node[155].appl generatedWSMs 1
scalar RSUExampleScenario.node[155].appl receivedWSMs 1
scalar RSUExampleScenario.node[155].appl generatedBSMs 0
scalar RSUExampleScenario.node[155].appl receivedBSMs 0
scalar RSUExampleScenario.node[155].appl generatedWSAs 0
scalar RSUExampleScenario.node[155].appl receivedWSAs 0
scalar RSUExampleScenario.node[155].nic.phy80211p busyTime 9.6666666666667e-06
scalar RSUExampleScenario.node[155].nic.mac1609_4 ReceivedUnicastPackets 0
scalar RSUExampleScenario.node[155].nic.mac1609_4 ReceivedBroadcasts 1
scalar RSUExampleScenario.node[155].nic.mac1609_4 SentPackets 1
scalar RSUExampleScenario.node[155].nic.mac1609_4 SentAcknowledgements 0
scalar RSUExampleScenario.node[155].nic.mac1609_4 RetriesExceeded 0
scalar RSUExampleScenario.node[155].nic.mac1609_4 SNIRLostPackets 0
scalar RSUExampleScenario.node[155].nic.mac1609_4 RXTXLostPackets 0
scalar RSUExampleScenario.node[155].nic.mac1609_4 TotalLostPackets 0
scalar RSUExampleScenario.node[155].nic.mac1609_4 DroppedPacketsInMac 0
scalar RSUExampleScenario.node[155].nic.mac1609_4 TooLittleTime 0
scalar RSUExampleScenario.node[155].nic.mac1609_4 TimesIntoBackoff 1
scalar RSUExampleScenario.node[155].nic.mac1609_4 SlotsBackoff 1
scalar RSUExampleScenario.node[155].nic.mac1609_4 NumInternalContention 0
scalar RSUExampleScenario.node[155].nic.mac1609_4 totalBusyTime 0.000465
scalar RSUExampleScenario.node[155].nic.mac1609_4 retriesExceeded:count 0
attr source org_car2x_veins_modules_mac_sigRetriesExceeded
scalar RSUExampleScenario.node[155].nic.mac1609_4 sentAcks:count 0
attr source org_car2x_veins_modules_mac_sigSentAck
scalar RSUExampleScenario.node[155].nic.mac1609_4 sentPackets:count 1
attr source org_car2x_veins_modules_mac_sigSentPacket
scalar RSUExampleScenario.node[155].nic.mac1609_4 collisions:count 0
attr source org_car2x_veins_modules_mac_sigCollision
scalar RSUExampleScenario.node[155].nic.mac1609_4 channelBusy:timeavg 1.9375e-05
attr source org_car2x_veins_modules_mac_sigChannelBusy
scalar RSUExampleScenario.node[155].veinsmobility startTime 170
scalar RSUExampleScenario.node[155].veinsmobility totalTime 23
scalar RSUExampleScenario.node[155].veinsmobility stopTime 194
scalar RSUExampleScenario.node[155].veinsmobility minSpeed 4.0575563673017
scalar RSUExampleScenario.node[155].veinsmobility maxSpeed 10.809721056354
scalar RSUExampleScenario.node[155].veinsmobility totalDistance 180.14626487575
scalar RSUExampleScenario.node[155].veinsmobility totalCO2Emission 53.174353513112
scalar RSUExampleScenario.node[82].appl generatedWSMs 1
scalar RSUExampleScenario.node[82].appl receivedWSMs 11
scalar RSUExampleScenario.node[82].appl generatedBSMs 0
scalar RSUExampleScenario.node[82].appl receivedBSMs 0
scalar RSUExampleScenario.node[82].appl generatedWSAs 0
scalar RSUExampleScenario.node[82].appl receivedWSAs 0
scalar RSUExampleScenario.node[82].nic.phy80211p busyTime 2.385046728972e-05
scalar RSUExampleScenario.node[82].nic.mac1609_4 ReceivedUnicastPackets 0
scalar RSUExampleScenario.node[82].nic.mac1609_4 ReceivedBroadcasts 11
scalar RSUExampleScenario.node[82].nic.mac1609_4 SentPackets 1
scalar RSUExampleScenario.node[82].nic.mac1609_4 SentAcknowledgements 0
scalar RSUExampleScenario.node[82].nic.mac1609_4 RetriesExceeded 0
scalar RSUExampleScenario.node[82].nic.mac1609_4 SNIRLostPackets 0
scalar RSUExampleScenario.node[82].nic.mac1609_4 RXTXLostPackets 0
scalar RSUExampleScenario.node[82].nic.mac1609_4 TotalLostPackets 0
scalar RSUExampleScenario.node[82].nic.mac1609_4 DroppedPacketsInMac 0
scalar RSUExampleScenario.node[82].nic.mac1609_4 TooLittleTime 0
scalar RSUExampleScenario.node[82].nic.mac1609_4 TimesIntoBackoff 1
scalar RSUExampleScenario.node[82].nic.mac1609_4 SlotsBackoff 2
scalar RSUExampleScenario.node[82].nic.mac1609_4 NumInternalContention 0
scalar RSUExampleScenario.node[82].nic.mac1609_4 totalBusyTime 0.002785
scalar RSUExampleScenario.node[82].nic.mac1609_4 retriesExceeded:count 0
attr source org_car2x_veins_modules_mac_sigRetriesExceeded
scalar RSUExampleScenario.node[82].nic.mac1609_4 sentAcks:count 0
attr source org_car2x_veins_modules_mac_sigSentAck
scalar RSUExampleScenario.node[82].nic.mac1609_4 sentPackets:count 1
attr source org_car2x_veins_modules_mac_sigSentPacket
scalar RSUExampleScenario.node[82].nic.mac1609_4 collisions:count 0
attr source org_car2x_veins_modules_mac_sigCollision
scalar RSUExampleScenario.node[82].nic.mac1609_4 channelBusy:timeavg 2.6028037383178e-05
attr source org_car2x_veins_modules_mac_sigChannelBusy
scalar RSUExampleScenario.node[82].veinsmobility startTime 88
scalar RSUExampleScenario.node[82].veinsmobility totalTime 106
scalar RSUExampleScenario.node[82].veinsmobility stopTime 195
scalar RSUExampleScenario.node[82].veinsmobility minSpeed 0
scalar RSUExampleScenario.node[82].veinsmobility maxSpeed 20.206127192568
scalar RSUExampleScenario.node[82].veinsmobility totalDistance 624.4981429129
scalar RSUExampleScenario.node[82].veinsmobility totalCO2Emission 239.82574048943
scalar RSUExampleScenario.node[144].appl generatedWSMs 0
scalar RSUExampleScenario.node[144].appl receivedWSMs 0
scalar RSUExampleScenario.node[144].appl generatedBSMs 0
scalar RSUExampleScenario.node[144].appl receivedBSMs 0
scalar RSUExampleScenario.node[144].appl generatedWSAs 0
scalar RSUExampleScenario.node[144].appl receivedWSAs 0
scalar RSUExampleScenario.node[144].nic.phy80211p busyTime 0
scalar RSUExampleScenario.node[144].nic.mac1609_4 ReceivedUnicastPackets 0
scalar RSUExampleScenario.node[144].nic.mac1609_4 ReceivedBroadcasts 0
scalar RSUExampleScenario.node[144].nic.mac1609_4 SentPackets 0
scalar RSUExampleScenario.node[144].nic.mac1609_4 SentAcknowledgements 0
scalar RSUExampleScenario.node[144].nic.mac1609_4 RetriesExceeded 0
scalar RSUExampleScenario.node[144].nic.mac1609_4 SNIRLostPackets 0
scalar RSUExampleScenario.node[144].nic.mac1609_4 RXTXLostPackets 0
scalar RSUExampleScenario.node[144].nic.mac1609_4 TotalLostPackets 0
scalar RSUExampleScenario.node[144].nic.mac1609_4 DroppedPacketsInMac 0
scalar RSUExampleScenario.node[144].nic.mac1609_4 TooLittleTime 0
scalar RSUExampleScenario.node[144].nic.mac1609_4 TimesIntoBackoff 0
scalar RSUExampleScenario.node[144].nic.mac1609_4 SlotsBackoff 0
scalar RSUExampleScenario.node[144].nic.mac1609_4 NumInternalContention 0
scalar RSUExampleScenario.node[144].nic.mac1609_4 totalBusyTime 0
scalar RSUExampleScenario.node[144].nic.mac1609_4 retriesExceeded:count 0
attr source org_car2x_veins_modules_mac_sigRetriesExceeded
scalar RSUExampleScenario.node[144].nic.mac1609_4 sentAcks:count 0
attr source org_car2x_veins_modules_mac_sigSentAck
scalar RSUExampleScenario.node[144].nic.mac1609_4 sentPackets:count 0
attr source org_car2x_veins_modules_mac_sigSentPacket
scalar RSUExampleScenario.node[144].nic.mac1609_4 collisions:count 0
attr source org_car2x_veins_modules_mac_sigCollision
scalar RSUExampleScenario.node[144].nic.mac1609_4 channelBusy:timeavg 0
attr source org_car2x_veins_modules_mac_sigChannelBusy
scalar RSUExampleScenario.node[144].veinsmobility startTime 158
scalar RSUExampleScenario.node[144].veinsmobility totalTime 39
scalar RSUExampleScenario.node[144].veinsmobility stopTime 198
scalar RSUExampleScenario.node[144].veinsmobility minSpeed 4.0816621120571
scalar RSUExampleScenario.node[144].veinsmobility maxSpeed 9.1543247655901
scalar RSUExampleScenario.node[144].veinsmobility totalDistance 338.18278016177
scalar RSUExampleScenario.node[144].veinsmobility totalCO2Emission 72.805571447712
scalar RSUExampleScenario.node[71].appl generatedWSMs 1
scalar RSUExampleScenario.node[71].appl receivedWSMs 3
scalar RSUExampleScenario.node[71].appl generatedBSMs 0
scalar RSUExampleScenario.node[71].appl receivedBSMs 0
scalar RSUExampleScenario.node[71].appl generatedWSAs 0
scalar RSUExampleScenario.node[71].appl receivedWSAs 0
scalar RSUExampleScenario.node[71].nic.phy80211p busyTime 5.7520661157025e-06
scalar RSUExampleScenario.node[71].nic.mac1609_4 ReceivedUnicastPackets 0
scalar RSUExampleScenario.node[71].nic.mac1609_4 ReceivedBroadcasts 3
scalar RSUExampleScenario.node[71].nic.mac1609_4 SentPackets 1
scalar RSUExampleScenario.node[71].nic.mac1609_4 SentAcknowledgements 0
scalar RSUExampleScenario.node[71].nic.mac1609_4 RetriesExceeded 0
scalar RSUExampleScenario.node[71].nic.mac1609_4 SNIRLostPackets 0
scalar RSUExampleScenario.node[71].nic.mac1609_4 RXTXLostPackets 0
scalar RSUExampleScenario.node[71].nic.mac1609_4 TotalLostPackets 0
scalar RSUExampleScenario.node[71].nic.mac1609_4 DroppedPacketsInMac 0
scalar RSUExampleScenario.node[71].nic.mac1609_4 TooLittleTime 0
scalar RSUExampleScenario.node[71].nic.mac1609_4 TimesIntoBackoff 1
scalar RSUExampleScenario.node[71].nic.mac1609_4 SlotsBackoff 0
scalar RSUExampleScenario.node[71].nic.mac1609_4 NumInternalContention 0
scalar RSUExampleScenario.node[71].nic.mac1609_4 totalBusyTime 0.000929
scalar RSUExampleScenario.node[71].nic.mac1609_4 retriesExceeded:count 0
attr source org_car2x_veins_modules_mac_sigRetriesExceeded
scalar RSUExampleScenario.node[71].nic.mac1609_4 sentAcks:count 0
attr source org_car2x_veins_modules_mac_sigSentAck
scalar RSUExampleScenario.node[71].nic.mac1609_4 sentPackets:count 1
attr source org_car2x_veins_modules_mac_sigSentPacket
scalar RSUExampleScenario.node[71].nic.mac1609_4 collisions:count 0
attr source org_car2x_veins_modules_mac_sigCollision
scalar RSUExampleScenario.node[71].nic.mac1609_4 channelBusy:timeavg 7.6776859504132e-06
attr source org_car2x_veins_modules_mac_sigChannelBusy
scalar RSUExampleScenario.node[71].veinsmobility startTime 77
scalar RSUExampleScenario.node[71].veinsmobility totalTime 120
scalar RSUExampleScenario.node[71].veinsmobility stopTime 198
scalar RSUExampleScenario.node[71].veinsmobility minSpeed 4.0982231091409
scalar RSUExampleScenario.node[71].veinsmobility maxSpeed 10.071779462864
scalar RSUExampleScenario.node[71].veinsmobility totalDistance 847.37821686576
scalar RSUExampleScenario.node[71].veinsmobility totalCO2Emission 193.73070742143
scalar RSUExampleScenario.node[41].appl generatedWSMs 1
scalar RSUExampleScenario.node[41].appl receivedWSMs 5
scalar RSUExampleScenario.node[41].appl generatedBSMs 0
scalar RSUExampleScenario.node[41].appl receivedBSMs 0
scalar RSUExampleScenario.node[41].appl generatedWSAs 0
scalar RSUExampleScenario.node[41].appl receivedWSAs 0
scalar RSUExampleScenario.node[41].nic.phy80211p busyTime 7.3885350318471e-06
[...]
scalar RSUExampleScenario.node[206].veinsmobility maxSpeed 7.3847616155826
scalar RSUExampleScenario.node[206].veinsmobility totalDistance 51.119694049978
scalar RSUExampleScenario.node[206].veinsmobility totalCO2Emission 15.759604861462
scalar RSUExampleScenario.node[207].appl generatedWSMs 0
scalar RSUExampleScenario.node[207].appl receivedWSMs 0
scalar RSUExampleScenario.node[207].appl generatedBSMs 0
scalar RSUExampleScenario.node[207].appl receivedBSMs 0
scalar RSUExampleScenario.node[207].appl generatedWSAs 0
scalar RSUExampleScenario.node[207].appl receivedWSAs 0
scalar RSUExampleScenario.node[207].nic.phy80211p busyTime 3.866660693582e-05
scalar RSUExampleScenario.node[207].nic.mac1609_4 ReceivedUnicastPackets 0
scalar RSUExampleScenario.node[207].nic.mac1609_4 ReceivedBroadcasts 0
scalar RSUExampleScenario.node[207].nic.mac1609_4 SentPackets 0
scalar RSUExampleScenario.node[207].nic.mac1609_4 SentAcknowledgements 0
scalar RSUExampleScenario.node[207].nic.mac1609_4 RetriesExceeded 0
scalar RSUExampleScenario.node[207].nic.mac1609_4 SNIRLostPackets 0
scalar RSUExampleScenario.node[207].nic.mac1609_4 RXTXLostPackets 0
scalar RSUExampleScenario.node[207].nic.mac1609_4 TotalLostPackets 0
scalar RSUExampleScenario.node[207].nic.mac1609_4 DroppedPacketsInMac 0
scalar RSUExampleScenario.node[207].nic.mac1609_4 TooLittleTime 0
scalar RSUExampleScenario.node[207].nic.mac1609_4 TimesIntoBackoff 0
scalar RSUExampleScenario.node[207].nic.mac1609_4 SlotsBackoff 0
scalar RSUExampleScenario.node[207].nic.mac1609_4 NumInternalContention 0
scalar RSUExampleScenario.node[207].nic.mac1609_4 totalBusyTime 0
scalar RSUExampleScenario.node[207].nic.mac1609_4 retriesExceeded:count 0
attr source org_car2x_veins_modules_mac_sigRetriesExceeded
scalar RSUExampleScenario.node[207].nic.mac1609_4 sentAcks:count 0
attr source org_car2x_veins_modules_mac_sigSentAck
scalar RSUExampleScenario.node[207].nic.mac1609_4 sentPackets:count 0
attr source org_car2x_veins_modules_mac_sigSentPacket
scalar RSUExampleScenario.node[207].nic.mac1609_4 collisions:count 0
attr source org_car2x_veins_modules_mac_sigCollision
scalar RSUExampleScenario.node[207].nic.mac1609_4 channelBusy:timeavg 3.2134300360036e-07
attr source org_car2x_veins_modules_mac_sigChannelBusy
scalar RSUExampleScenario.node[207].veinsmobility startTime 231
scalar RSUExampleScenario.node[207].veinsmobility totalTime 6
scalar RSUExampleScenario.node[207].veinsmobility stopTime 237.00000926859
scalar RSUExampleScenario.node[207].veinsmobility minSpeed 3.2462439506174
scalar RSUExampleScenario.node[207].veinsmobility maxSpeed 10.700638468763
scalar RSUExampleScenario.node[207].veinsmobility totalDistance 40.78643097637
scalar RSUExampleScenario.node[207].veinsmobility totalCO2Emission 21.359471653208
scalar RSUExampleScenario.node[208].appl generatedWSMs 0
scalar RSUExampleScenario.node[208].appl receivedWSMs 0
scalar RSUExampleScenario.node[208].appl generatedBSMs 0
scalar RSUExampleScenario.node[208].appl receivedBSMs 0
scalar RSUExampleScenario.node[208].appl generatedWSAs 0
scalar RSUExampleScenario.node[208].appl receivedWSAs 0
scalar RSUExampleScenario.node[208].nic.phy80211p busyTime 0
scalar RSUExampleScenario.node[208].nic.mac1609_4 ReceivedUnicastPackets 0
scalar RSUExampleScenario.node[208].nic.mac1609_4 ReceivedBroadcasts 0
scalar RSUExampleScenario.node[208].nic.mac1609_4 SentPackets 0
scalar RSUExampleScenario.node[208].nic.mac1609_4 SentAcknowledgements 0
scalar RSUExampleScenario.node[208].nic.mac1609_4 RetriesExceeded 0
scalar RSUExampleScenario.node[208].nic.mac1609_4 SNIRLostPackets 0
scalar RSUExampleScenario.node[208].nic.mac1609_4 RXTXLostPackets 0
scalar RSUExampleScenario.node[208].nic.mac1609_4 TotalLostPackets 0
scalar RSUExampleScenario.node[208].nic.mac1609_4 DroppedPacketsInMac 0
scalar RSUExampleScenario.node[208].nic.mac1609_4 TooLittleTime 0
scalar RSUExampleScenario.node[208].nic.mac1609_4 TimesIntoBackoff 0
scalar RSUExampleScenario.node[208].nic.mac1609_4 SlotsBackoff 0
scalar RSUExampleScenario.node[208].nic.mac1609_4 NumInternalContention 0
scalar RSUExampleScenario.node[208].nic.mac1609_4 totalBusyTime 0
scalar RSUExampleScenario.node[208].nic.mac1609_4 retriesExceeded:count 0
attr source org_car2x_veins_modules_mac_sigRetriesExceeded
scalar RSUExampleScenario.node[208].nic.mac1609_4 sentAcks:count 0
attr source org_car2x_veins_modules_mac_sigSentAck
scalar RSUExampleScenario.node[208].nic.mac1609_4 sentPackets:count 0
attr source org_car2x_veins_modules_mac_sigSentPacket
scalar RSUExampleScenario.node[208].nic.mac1609_4 collisions:count 0
attr source org_car2x_veins_modules_mac_sigCollision
scalar RSUExampleScenario.node[208].nic.mac1609_4 channelBusy:timeavg 0
attr source org_car2x_veins_modules_mac_sigChannelBusy
scalar RSUExampleScenario.node[208].veinsmobility startTime 231
scalar RSUExampleScenario.node[208].veinsmobility totalTime 6
scalar RSUExampleScenario.node[208].veinsmobility stopTime 237.00000926859
scalar RSUExampleScenario.node[208].veinsmobility minSpeed 0
scalar RSUExampleScenario.node[208].veinsmobility maxSpeed 5.8083915957901
scalar RSUExampleScenario.node[208].veinsmobility totalDistance 16.510060299606
scalar RSUExampleScenario.node[208].veinsmobility totalCO2Emission 7.9030002541171
scalar RSUExampleScenario.node[209].appl generatedWSMs 0
scalar RSUExampleScenario.node[209].appl receivedWSMs 0
scalar RSUExampleScenario.node[209].appl generatedBSMs 0
scalar RSUExampleScenario.node[209].appl receivedBSMs 0
scalar RSUExampleScenario.node[209].appl generatedWSAs 0
scalar RSUExampleScenario.node[209].appl receivedWSAs 0
scalar RSUExampleScenario.node[209].nic.phy80211p busyTime 4.6399913987607e-05
scalar RSUExampleScenario.node[209].nic.mac1609_4 ReceivedUnicastPackets 0
scalar RSUExampleScenario.node[209].nic.mac1609_4 ReceivedBroadcasts 0
scalar RSUExampleScenario.node[209].nic.mac1609_4 SentPackets 0
scalar RSUExampleScenario.node[209].nic.mac1609_4 SentAcknowledgements 0
scalar RSUExampleScenario.node[209].nic.mac1609_4 RetriesExceeded 0
scalar RSUExampleScenario.node[209].nic.mac1609_4 SNIRLostPackets 0
scalar RSUExampleScenario.node[209].nic.mac1609_4 RXTXLostPackets 0
scalar RSUExampleScenario.node[209].nic.mac1609_4 TotalLostPackets 0
scalar RSUExampleScenario.node[209].nic.mac1609_4 DroppedPacketsInMac 0
scalar RSUExampleScenario.node[209].nic.mac1609_4 TooLittleTime 0
scalar RSUExampleScenario.node[209].nic.mac1609_4 TimesIntoBackoff 0
scalar RSUExampleScenario.node[209].nic.mac1609_4 SlotsBackoff 0
scalar RSUExampleScenario.node[209].nic.mac1609_4 NumInternalContention 0
scalar RSUExampleScenario.node[209].nic.mac1609_4 totalBusyTime 0
scalar RSUExampleScenario.node[209].nic.mac1609_4 retriesExceeded:count 0
attr source org_car2x_veins_modules_mac_sigRetriesExceeded
scalar RSUExampleScenario.node[209].nic.mac1609_4 sentAcks:count 0
attr source org_car2x_veins_modules_mac_sigSentAck
scalar RSUExampleScenario.node[209].nic.mac1609_4 sentPackets:count 0
attr source org_car2x_veins_modules_mac_sigSentPacket
scalar RSUExampleScenario.node[209].nic.mac1609_4 collisions:count 0
attr source org_car2x_veins_modules_mac_sigCollision
scalar RSUExampleScenario.node[209].nic.mac1609_4 channelBusy:timeavg 5.8679651224427e-07
attr source org_car2x_veins_modules_mac_sigChannelBusy
scalar RSUExampleScenario.node[209].veinsmobility startTime 232
scalar RSUExampleScenario.node[209].veinsmobility totalTime 5
scalar RSUExampleScenario.node[209].veinsmobility stopTime 237.00000926859
scalar RSUExampleScenario.node[209].veinsmobility minSpeed 3.9878769401904
scalar RSUExampleScenario.node[209].veinsmobility maxSpeed 9.840685505351
scalar RSUExampleScenario.node[209].veinsmobility totalDistance 34.21755068717
scalar RSUExampleScenario.node[209].veinsmobility totalCO2Emission 17.403028383409
scalar RSUExampleScenario.node[210].appl generatedWSMs 0
scalar RSUExampleScenario.node[210].appl receivedWSMs 0
scalar RSUExampleScenario.node[210].appl generatedBSMs 0
scalar RSUExampleScenario.node[210].appl receivedBSMs 0
scalar RSUExampleScenario.node[210].appl generatedWSAs 0
scalar RSUExampleScenario.node[210].appl receivedWSAs 0
scalar RSUExampleScenario.node[210].nic.phy80211p busyTime 0
scalar RSUExampleScenario.node[210].nic.mac1609_4 ReceivedUnicastPackets 0
scalar RSUExampleScenario.node[210].nic.mac1609_4 ReceivedBroadcasts 0
scalar RSUExampleScenario.node[210].nic.mac1609_4 SentPackets 0
scalar RSUExampleScenario.node[210].nic.mac1609_4 SentAcknowledgements 0
scalar RSUExampleScenario.node[210].nic.mac1609_4 RetriesExceeded 0
scalar RSUExampleScenario.node[210].nic.mac1609_4 SNIRLostPackets 0
scalar RSUExampleScenario.node[210].nic.mac1609_4 RXTXLostPackets 0
scalar RSUExampleScenario.node[210].nic.mac1609_4 TotalLostPackets 0
scalar RSUExampleScenario.node[210].nic.mac1609_4 DroppedPacketsInMac 0
scalar RSUExampleScenario.node[210].nic.mac1609_4 TooLittleTime 0
scalar RSUExampleScenario.node[210].nic.mac1609_4 TimesIntoBackoff 0
scalar RSUExampleScenario.node[210].nic.mac1609_4 SlotsBackoff 0
scalar RSUExampleScenario.node[210].nic.mac1609_4 NumInternalContention 0
scalar RSUExampleScenario.node[210].nic.mac1609_4 totalBusyTime 0
scalar RSUExampleScenario.node[210].nic.mac1609_4 retriesExceeded:count 0
attr source org_car2x_veins_modules_mac_sigRetriesExceeded
scalar RSUExampleScenario.node[210].nic.mac1609_4 sentAcks:count 0
attr source org_car2x_veins_modules_mac_sigSentAck
scalar RSUExampleScenario.node[210].nic.mac1609_4 sentPackets:count 0
attr source org_car2x_veins_modules_mac_sigSentPacket
scalar RSUExampleScenario.node[210].nic.mac1609_4 collisions:count 0
attr source org_car2x_veins_modules_mac_sigCollision
scalar RSUExampleScenario.node[210].nic.mac1609_4 channelBusy:timeavg 0
attr source org_car2x_veins_modules_mac_sigChannelBusy
scalar RSUExampleScenario.node[210].veinsmobility startTime 234
scalar RSUExampleScenario.node[210].veinsmobility totalTime 3
scalar RSUExampleScenario.node[210].veinsmobility stopTime 237.00000926859
scalar RSUExampleScenario.node[210].veinsmobility minSpeed 4.1578080474362
scalar RSUExampleScenario.node[210].veinsmobility maxSpeed 7.6940863916563
scalar RSUExampleScenario.node[210].veinsmobility totalDistance 15.640089796279
scalar RSUExampleScenario.node[210].veinsmobility totalCO2Emission 8.7671365141928
scalar RSUExampleScenario.node[211].appl generatedWSMs 0
scalar RSUExampleScenario.node[211].appl receivedWSMs 0
scalar RSUExampleScenario.node[211].appl generatedBSMs 0
scalar RSUExampleScenario.node[211].appl receivedBSMs 0
scalar RSUExampleScenario.node[211].appl generatedWSAs 0
scalar RSUExampleScenario.node[211].appl receivedWSAs 0
scalar RSUExampleScenario.node[211].nic.phy80211p busyTime 0
scalar RSUExampleScenario.node[211].nic.mac1609_4 ReceivedUnicastPackets 0
scalar RSUExampleScenario.node[211].nic.mac1609_4 ReceivedBroadcasts 0
scalar RSUExampleScenario.node[211].nic.mac1609_4 SentPackets 0
scalar RSUExampleScenario.node[211].nic.mac1609_4 SentAcknowledgements 0
scalar RSUExampleScenario.node[211].nic.mac1609_4 RetriesExceeded 0
scalar RSUExampleScenario.node[211].nic.mac1609_4 SNIRLostPackets 0
scalar RSUExampleScenario.node[211].nic.mac1609_4 RXTXLostPackets 0
scalar RSUExampleScenario.node[211].nic.mac1609_4 TotalLostPackets 0
scalar RSUExampleScenario.node[211].nic.mac1609_4 DroppedPacketsInMac 0
scalar RSUExampleScenario.node[211].nic.mac1609_4 TooLittleTime 0
scalar RSUExampleScenario.node[211].nic.mac1609_4 TimesIntoBackoff 0
scalar RSUExampleScenario.node[211].nic.mac1609_4 SlotsBackoff 0
scalar RSUExampleScenario.node[211].nic.mac1609_4 NumInternalContention 0
scalar RSUExampleScenario.node[211].nic.mac1609_4 totalBusyTime 0
scalar RSUExampleScenario.node[211].nic.mac1609_4 retriesExceeded:count 0
attr source org_car2x_veins_modules_mac_sigRetriesExceeded
scalar RSUExampleScenario.node[211].nic.mac1609_4 sentAcks:count 0
attr source org_car2x_veins_modules_mac_sigSentAck
scalar RSUExampleScenario.node[211].nic.mac1609_4 sentPackets:count 0
attr source org_car2x_veins_modules_mac_sigSentPacket
scalar RSUExampleScenario.node[211].nic.mac1609_4 collisions:count 0
attr source org_car2x_veins_modules_mac_sigCollision
scalar RSUExampleScenario.node[211].nic.mac1609_4 channelBusy:timeavg 0
attr source org_car2x_veins_modules_mac_sigChannelBusy
scalar RSUExampleScenario.node[211].veinsmobility startTime 235
scalar RSUExampleScenario.node[211].veinsmobility totalTime 2
scalar RSUExampleScenario.node[211].veinsmobility stopTime 237.00000926859
scalar RSUExampleScenario.node[211].veinsmobility minSpeed 0.031030935049142
scalar RSUExampleScenario.node[211].veinsmobility maxSpeed 0.084436354833851
scalar RSUExampleScenario.node[211].veinsmobility totalDistance 0.19101538965952
scalar RSUExampleScenario.node[211].veinsmobility totalCO2Emission 1.1110975450199
scalar RSUExampleScenario.node[212].appl generatedWSMs 0
scalar RSUExampleScenario.node[212].appl receivedWSMs 0
scalar RSUExampleScenario.node[212].appl generatedBSMs 0
scalar RSUExampleScenario.node[212].appl receivedBSMs 0
scalar RSUExampleScenario.node[212].appl generatedWSAs 0
scalar RSUExampleScenario.node[212].appl receivedWSAs 0
scalar RSUExampleScenario.node[212].nic.phy80211p busyTime 0
scalar RSUExampleScenario.node[212].nic.mac1609_4 ReceivedUnicastPackets 0
scalar RSUExampleScenario.node[212].nic.mac1609_4 ReceivedBroadcasts 0
scalar RSUExampleScenario.node[212].nic.mac1609_4 SentPackets 0
scalar RSUExampleScenario.node[212].nic.mac1609_4 SentAcknowledgements 0
scalar RSUExampleScenario.node[212].nic.mac1609_4 RetriesExceeded 0
scalar RSUExampleScenario.node[212].nic.mac1609_4 SNIRLostPackets 0
scalar RSUExampleScenario.node[212].nic.mac1609_4 RXTXLostPackets 0
scalar RSUExampleScenario.node[212].nic.mac1609_4 TotalLostPackets 0
scalar RSUExampleScenario.node[212].nic.mac1609_4 DroppedPacketsInMac 0
scalar RSUExampleScenario.node[212].nic.mac1609_4 TooLittleTime 0
scalar RSUExampleScenario.node[212].nic.mac1609_4 TimesIntoBackoff 0
scalar RSUExampleScenario.node[212].nic.mac1609_4 SlotsBackoff 0
scalar RSUExampleScenario.node[212].nic.mac1609_4 NumInternalContention 0
scalar RSUExampleScenario.node[212].nic.mac1609_4 totalBusyTime 0
scalar RSUExampleScenario.node[212].nic.mac1609_4 retriesExceeded:count 0
attr source org_car2x_veins_modules_mac_sigRetriesExceeded
scalar RSUExampleScenario.node[212].nic.mac1609_4 sentAcks:count 0
attr source org_car2x_veins_modules_mac_sigSentAck
scalar RSUExampleScenario.node[212].nic.mac1609_4 sentPackets:count 0
attr source org_car2x_veins_modules_mac_sigSentPacket
scalar RSUExampleScenario.node[212].nic.mac1609_4 collisions:count 0
attr source org_car2x_veins_modules_mac_sigCollision
scalar RSUExampleScenario.node[212].nic.mac1609_4 channelBusy:timeavg 0
attr source org_car2x_veins_modules_mac_sigChannelBusy
scalar RSUExampleScenario.node[212].veinsmobility startTime 236
scalar RSUExampleScenario.node[212].veinsmobility totalTime 1
scalar RSUExampleScenario.node[212].veinsmobility stopTime 237.00000926859
scalar RSUExampleScenario.node[212].veinsmobility minSpeed 4.190821817844
scalar RSUExampleScenario.node[212].veinsmobility maxSpeed 4.190821817844
scalar RSUExampleScenario.node[212].veinsmobility totalDistance 3.2674023831064
scalar RSUExampleScenario.node[212].veinsmobility totalCO2Emission 0
scalar RSUExampleScenario.node[213].appl generatedWSMs 0
scalar RSUExampleScenario.node[213].appl receivedWSMs 0
scalar RSUExampleScenario.node[213].appl generatedBSMs 0
scalar RSUExampleScenario.node[213].appl receivedBSMs 0
scalar RSUExampleScenario.node[213].appl generatedWSAs 0
scalar RSUExampleScenario.node[213].appl receivedWSAs 0
scalar RSUExampleScenario.node[213].nic.phy80211p busyTime 0
scalar RSUExampleScenario.node[213].nic.mac1609_4 ReceivedUnicastPackets 0
scalar RSUExampleScenario.node[213].nic.mac1609_4 ReceivedBroadcasts 0
scalar RSUExampleScenario.node[213].nic.mac1609_4 SentPackets 0
scalar RSUExampleScenario.node[213].nic.mac1609_4 SentAcknowledgements 0
scalar RSUExampleScenario.node[213].nic.mac1609_4 RetriesExceeded 0
scalar RSUExampleScenario.node[213].nic.mac1609_4 SNIRLostPackets 0
scalar RSUExampleScenario.node[213].nic.mac1609_4 RXTXLostPackets 0
scalar RSUExampleScenario.node[213].nic.mac1609_4 TotalLostPackets 0
scalar RSUExampleScenario.node[213].nic.mac1609_4 DroppedPacketsInMac 0
scalar RSUExampleScenario.node[213].nic.mac1609_4 TooLittleTime 0
scalar RSUExampleScenario.node[213].nic.mac1609_4 TimesIntoBackoff 0
scalar RSUExampleScenario.node[213].nic.mac1609_4 SlotsBackoff 0
scalar RSUExampleScenario.node[213].nic.mac1609_4 NumInternalContention 0
scalar RSUExampleScenario.node[213].nic.mac1609_4 totalBusyTime 0
scalar RSUExampleScenario.node[213].nic.mac1609_4 retriesExceeded:count 0
attr source org_car2x_veins_modules_mac_sigRetriesExceeded
scalar RSUExampleScenario.node[213].nic.mac1609_4 sentAcks:count 0
attr source org_car2x_veins_modules_mac_sigSentAck
scalar RSUExampleScenario.node[213].nic.mac1609_4 sentPackets:count 0
attr source org_car2x_veins_modules_mac_sigSentPacket
scalar RSUExampleScenario.node[213].nic.mac1609_4 collisions:count 0
attr source org_car2x_veins_modules_mac_sigCollision
scalar RSUExampleScenario.node[213].nic.mac1609_4 channelBusy:timeavg 0
attr source org_car2x_veins_modules_mac_sigChannelBusy
scalar RSUExampleScenario.node[213].veinsmobility startTime 237
scalar RSUExampleScenario.node[213].veinsmobility totalTime 0
scalar RSUExampleScenario.node[213].veinsmobility stopTime 237.00000926859
scalar RSUExampleScenario.node[213].veinsmobility totalDistance 0
scalar RSUExampleScenario.node[213].veinsmobility totalCO2Emission 0
scalar RSUExampleScenario.node[214].appl generatedWSMs 0
scalar RSUExampleScenario.node[214].appl receivedWSMs 0
scalar RSUExampleScenario.node[214].appl generatedBSMs 0
scalar RSUExampleScenario.node[214].appl receivedBSMs 0
scalar RSUExampleScenario.node[214].appl generatedWSAs 0
scalar RSUExampleScenario.node[214].appl receivedWSAs 0
scalar RSUExampleScenario.node[214].nic.phy80211p busyTime 0
scalar RSUExampleScenario.node[214].nic.mac1609_4 ReceivedUnicastPackets 0
scalar RSUExampleScenario.node[214].nic.mac1609_4 ReceivedBroadcasts 0
scalar RSUExampleScenario.node[214].nic.mac1609_4 SentPackets 0
scalar RSUExampleScenario.node[214].nic.mac1609_4 SentAcknowledgements 0
scalar RSUExampleScenario.node[214].nic.mac1609_4 RetriesExceeded 0
scalar RSUExampleScenario.node[214].nic.mac1609_4 SNIRLostPackets 0
scalar RSUExampleScenario.node[214].nic.mac1609_4 RXTXLostPackets 0
scalar RSUExampleScenario.node[214].nic.mac1609_4 TotalLostPackets 0
scalar RSUExampleScenario.node[214].nic.mac1609_4 DroppedPacketsInMac 0
scalar RSUExampleScenario.node[214].nic.mac1609_4 TooLittleTime 0
scalar RSUExampleScenario.node[214].nic.mac1609_4 TimesIntoBackoff 0
scalar RSUExampleScenario.node[214].nic.mac1609_4 SlotsBackoff 0
scalar RSUExampleScenario.node[214].nic.mac1609_4 NumInternalContention 0
scalar RSUExampleScenario.node[214].nic.mac1609_4 totalBusyTime 0
scalar RSUExampleScenario.node[214].nic.mac1609_4 retriesExceeded:count 0
attr source org_car2x_veins_modules_mac_sigRetriesExceeded
scalar RSUExampleScenario.node[214].nic.mac1609_4 sentAcks:count 0
attr source org_car2x_veins_modules_mac_sigSentAck
scalar RSUExampleScenario.node[214].nic.mac1609_4 sentPackets:count 0
attr source org_car2x_veins_modules_mac_sigSentPacket
scalar RSUExampleScenario.node[214].nic.mac1609_4 collisions:count 0
attr source org_car2x_veins_modules_mac_sigCollision
scalar RSUExampleScenario.node[214].nic.mac1609_4 channelBusy:timeavg 0
attr source org_car2x_veins_modules_mac_sigChannelBusy
scalar RSUExampleScenario.node[214].veinsmobility startTime 237
scalar RSUExampleScenario.node[214].veinsmobility totalTime 0
scalar RSUExampleScenario.node[214].veinsmobility stopTime 237.00000926859
scalar RSUExampleScenario.node[214].veinsmobility totalDistance 0
scalar RSUExampleScenario.node[214].veinsmobility totalCO2Emission 0

