version 2
run Default-0-20230407-02:10:50-4128
attr configname Default
attr datetime 20230407-02:10:50
attr experiment Default
attr inifile omnetpp.ini
attr iterationvars ""
attr iterationvarsf ""
attr measurement ""
attr network RSUExampleScenario
attr processid 4128
attr repetition 0
attr replication #0
attr resultdir results
attr runnumber 0
attr seedset 0
param *.playgroundSizeX 2500m
param *.playgroundSizeY 2500m
param *.playgroundSizeZ 50m
param *.annotations.draw true
param *.obstacles.obstacles "xmldoc(\"config.xml\", \"//AnalogueModel[@type='SimpleObstacleShadowing']/obstacles\")"
param *.manager.updateInterval 1s
param *.manager.host "\"localhost\""
param *.manager.port 9999
param *.manager.autoShutdown true
param *.manager.launchConfig "xmldoc(\"mtl.launchd.xml\")"
param *.rsu[0].mobility.x 2000
param *.rsu[0].mobility.y 2000
param *.rsu[0].mobility.z 3
param *.rsu[*].applType "\"TraCIDemoRSU11p\""
param *.rsu[*].appl.headerLength "80 bit"
param *.rsu[*].appl.sendBeacons false
param *.rsu[*].appl.dataOnSch false
param *.rsu[*].appl.beaconInterval 1s
param *.rsu[*].appl.beaconUserPriority 7
param *.rsu[*].appl.dataUserPriority 5
param *.rsu[*].nic.phy80211p.antennaOffsetZ "0 m"
param *.connectionManager.sendDirect true
param *.connectionManager.maxInterfDist 2600m
param *.connectionManager.drawMaxIntfDist false
param *.**.nic.mac1609_4.useServiceChannel false
param *.**.nic.mac1609_4.txPower 20mW
param *.**.nic.mac1609_4.bitrate 6Mbps
param *.**.nic.phy80211p.minPowerLevel -110dBm
param *.**.nic.phy80211p.useNoiseFloor true
param *.**.nic.phy80211p.noiseFloor -98dBm
param *.**.nic.phy80211p.decider "xmldoc(\"config.xml\")"
param *.**.nic.phy80211p.analogueModels "xmldoc(\"config.xml\")"
param *.**.nic.phy80211p.usePropagationDelay true
param *.**.nic.phy80211p.antenna "xmldoc(\"antenna.xml\", \"/root/Antenna[@id='monopole']\")"
param *.node[*].nic.phy80211p.antennaOffsetY "0 m"
param *.node[*].nic.phy80211p.antennaOffsetZ "1.895 m"
param *.node[*].applType "\"TraCIDemo11p\""
param *.node[*].appl.headerLength "80 bit"
param *.node[*].appl.sendBeacons false
param *.node[*].appl.dataOnSch false
param *.node[*].appl.beaconInterval 1s
param *.node[*].veinsmobility.x 0
param *.node[*].veinsmobility.y 0
param *.node[*].veinsmobility.z 0
param *.node[*].veinsmobility.setHostSpeed false
param *.node[*0].veinsmobility.accidentCount 1
param *.node[*0].veinsmobility.accidentStart 73s
param *.node[*0].veinsmobility.accidentDuration 50s

vector 0 RSUExampleScenario.node[0].veinsmobility posx ETV
vector 1 RSUExampleScenario.node[0].veinsmobility posy ETV
vector 2 RSUExampleScenario.node[1].veinsmobility posx ETV
vector 3 RSUExampleScenario.node[1].veinsmobility posy ETV
vector 4 RSUExampleScenario.node[0].veinsmobility speed ETV
vector 5 RSUExampleScenario.node[2].veinsmobility posx ETV
vector 6 RSUExampleScenario.node[2].veinsmobility posy ETV
vector 7 RSUExampleScenario.node[0].veinsmobility acceleration ETV
vector 8 RSUExampleScenario.node[0].veinsmobility co2emission ETV
vector 9 RSUExampleScenario.node[1].veinsmobility speed ETV
vector 10 RSUExampleScenario.node[3].veinsmobility posx ETV
vector 11 RSUExampleScenario.node[3].veinsmobility posy ETV
vector 12 RSUExampleScenario.node[1].veinsmobility acceleration ETV
vector 13 RSUExampleScenario.node[1].veinsmobility co2emission ETV
vector 14 RSUExampleScenario.node[2].veinsmobility speed ETV
vector 15 RSUExampleScenario.node[4].veinsmobility posx ETV
vector 16 RSUExampleScenario.node[4].veinsmobility posy ETV
vector 17 RSUExampleScenario.node[2].veinsmobility acceleration ETV
vector 18 RSUExampleScenario.node[2].veinsmobility co2emission ETV
vector 19 RSUExampleScenario.node[3].veinsmobility speed ETV
vector 20 RSUExampleScenario.node[5].veinsmobility posx ETV
vector 21 RSUExampleScenario.node[5].veinsmobility posy ETV
vector 22 RSUExampleScenario.node[3].veinsmobility acceleration ETV
vector 23 RSUExampleScenario.node[3].veinsmobility co2emission ETV
vector 24 RSUExampleScenario.node[4].veinsmobility speed ETV
vector 25 RSUExampleScenario.node[6].veinsmobility posx ETV
vector 26 RSUExampleScenario.node[6].veinsmobility posy ETV
vector 27 RSUExampleScenario.node[4].veinsmobility acceleration ETV
vector 28 RSUExampleScenario.node[4].veinsmobility co2emission ETV
vector 29 RSUExampleScenario.node[5].veinsmobility speed ETV
vector 30 RSUExampleScenario.node[7].veinsmobility posx ETV
vector 31 RSUExampleScenario.node[7].veinsmobility posy ETV
vector 32 RSUExampleScenario.node[5].veinsmobility acceleration ETV
vector 33 RSUExampleScenario.node[5].veinsmobility co2emission ETV
vector 34 RSUExampleScenario.node[6].veinsmobility speed ETV
vector 35 RSUExampleScenario.node[8].veinsmobility posx ETV
vector 36 RSUExampleScenario.node[8].veinsmobility posy ETV
vector 37 RSUExampleScenario.node[6].veinsmobility acceleration ETV
vector 38 RSUExampleScenario.node[6].veinsmobility co2emission ETV
vector 39 RSUExampleScenario.node[7].veinsmobility speed ETV
vector 40 RSUExampleScenario.node[9].veinsmobility posx ETV
vector 41 RSUExampleScenario.node[9].veinsmobility posy ETV
vector 42 RSUExampleScenario.node[7].veinsmobility acceleration ETV
vector 43 RSUExampleScenario.node[7].veinsmobility co2emission ETV
vector 44 RSUExampleScenario.node[8].veinsmobility speed ETV
vector 45 RSUExampleScenario.node[10].veinsmobility posx ETV
vector 46 RSUExampleScenario.node[10].veinsmobility posy ETV
vector 47 RSUExampleScenario.node[8].veinsmobility acceleration ETV
vector 48 RSUExampleScenario.node[8].veinsmobility co2emission ETV
vector 49 RSUExampleScenario.node[9].veinsmobility speed ETV
vector 50 RSUExampleScenario.node[11].veinsmobility posx ETV
vector 51 RSUExampleScenario.node[11].veinsmobility posy ETV
vector 52 RSUExampleScenario.node[9].veinsmobility acceleration ETV
vector 53 RSUExampleScenario.node[9].veinsmobility co2emission ETV
vector 54 RSUExampleScenario.node[10].veinsmobility speed ETV
vector 55 RSUExampleScenario.node[10].veinsmobility acceleration ETV
vector 56 RSUExampleScenario.node[10].veinsmobility co2emission ETV
vector 57 RSUExampleScenario.node[11].veinsmobility speed ETV
vector 58 RSUExampleScenario.node[12].veinsmobility posx ETV
vector 59 RSUExampleScenario.node[12].veinsmobility posy ETV
vector 60 RSUExampleScenario.node[11].veinsmobility acceleration ETV
vector 61 RSUExampleScenario.node[11].veinsmobility co2emission ETV
vector 62 RSUExampleScenario.node[13].veinsmobility posx ETV
vector 63 RSUExampleScenario.node[13].veinsmobility posy ETV
vector 64 RSUExampleScenario.node[12].veinsmobility speed ETV
vector 65 RSUExampleScenario.node[14].veinsmobility posx ETV
vector 66 RSUExampleScenario.node[14].veinsmobility posy ETV
vector 67 RSUExampleScenario.node[12].veinsmobility acceleration ETV
vector 68 RSUExampleScenario.node[12].veinsmobility co2emission ETV
vector 69 RSUExampleScenario.node[13].veinsmobility speed ETV
vector 70 RSUExampleScenario.node[15].veinsmobility posx ETV
vector 71 RSUExampleScenario.node[15].veinsmobility posy ETV
vector 72 RSUExampleScenario.node[13].veinsmobility acceleration ETV
vector 73 RSUExampleScenario.node[13].veinsmobility co2emission ETV
vector 74 RSUExampleScenario.node[14].veinsmobility speed ETV
vector 75 RSUExampleScenario.node[16].veinsmobility posx ETV
vector 76 RSUExampleScenario.node[16].veinsmobility posy ETV
vector 77 RSUExampleScenario.node[14].veinsmobility acceleration ETV
vector 78 RSUExampleScenario.node[14].veinsmobility co2emission ETV
vector 79 RSUExampleScenario.node[15].veinsmobility speed ETV
vector 80 RSUExampleScenario.node[17].veinsmobility posx ETV
vector 81 RSUExampleScenario.node[17].veinsmobility posy ETV
vector 82 RSUExampleScenario.node[15].veinsmobility acceleration ETV
vector 83 RSUExampleScenario.node[15].veinsmobility co2emission ETV
vector 84 RSUExampleScenario.node[16].veinsmobility speed ETV
vector 85 RSUExampleScenario.node[18].veinsmobility posx ETV
vector 86 RSUExampleScenario.node[18].veinsmobility posy ETV
vector 87 RSUExampleScenario.node[16].veinsmobility acceleration ETV
vector 88 RSUExampleScenario.node[16].veinsmobility co2emission ETV
vector 89 RSUExampleScenario.node[17].veinsmobility speed ETV
vector 90 RSUExampleScenario.node[19].veinsmobility posx ETV
vector 91 RSUExampleScenario.node[19].veinsmobility posy ETV
vector 92 RSUExampleScenario.node[17].veinsmobility acceleration ETV
vector 93 RSUExampleScenario.node[17].veinsmobility co2emission ETV
vector 94 RSUExampleScenario.node[18].veinsmobility speed ETV
vector 95 RSUExampleScenario.node[20].veinsmobility posx ETV
vector 96 RSUExampleScenario.node[20].veinsmobility posy ETV
vector 97 RSUExampleScenario.node[18].veinsmobility acceleration ETV
vector 98 RSUExampleScenario.node[18].veinsmobility co2emission ETV
vector 99 RSUExampleScenario.node[19].veinsmobility speed ETV
vector 100 RSUExampleScenario.node[21].veinsmobility posx ETV
vector 101 RSUExampleScenario.node[21].veinsmobility posy ETV
vector 102 RSUExampleScenario.node[19].veinsmobility acceleration ETV
vector 103 RSUExampleScenario.node[19].veinsmobility co2emission ETV
vector 104 RSUExampleScenario.node[20].veinsmobility speed ETV
vector 105 RSUExampleScenario.node[22].veinsmobility posx ETV
vector 106 RSUExampleScenario.node[22].veinsmobility posy ETV
vector 107 RSUExampleScenario.node[20].veinsmobility acceleration ETV
vector 108 RSUExampleScenario.node[20].veinsmobility co2emission ETV
vector 109 RSUExampleScenario.node[21].veinsmobility speed ETV
vector 110 RSUExampleScenario.node[23].veinsmobility posx ETV
vector 111 RSUExampleScenario.node[23].veinsmobility posy ETV
vector 112 RSUExampleScenario.node[21].veinsmobility acceleration ETV
vector 113 RSUExampleScenario.node[21].veinsmobility co2emission ETV
vector 114 RSUExampleScenario.node[22].veinsmobility speed ETV
vector 115 RSUExampleScenario.node[24].veinsmobility posx ETV
vector 116 RSUExampleScenario.node[24].veinsmobility posy ETV
vector 117 RSUExampleScenario.node[22].veinsmobility acceleration ETV
vector 118 RSUExampleScenario.node[22].veinsmobility co2emission ETV
vector 119 RSUExampleScenario.node[23].veinsmobility speed ETV
vector 120 RSUExampleScenario.node[23].veinsmobility acceleration ETV
vector 121 RSUExampleScenario.node[23].veinsmobility co2emission ETV
vector 122 RSUExampleScenario.node[24].veinsmobility speed ETV
vector 123 RSUExampleScenario.node[25].veinsmobility posx ETV
vector 124 RSUExampleScenario.node[25].veinsmobility posy ETV
vector 125 RSUExampleScenario.node[26].veinsmobility posx ETV
vector 126 RSUExampleScenario.node[26].veinsmobility posy ETV
vector 127 RSUExampleScenario.node[24].veinsmobility acceleration ETV
vector 128 RSUExampleScenario.node[24].veinsmobility co2emission ETV
vector 129 RSUExampleScenario.node[27].veinsmobility posx ETV
vector 130 RSUExampleScenario.node[27].veinsmobility posy ETV
vector 131 RSUExampleScenario.node[25].veinsmobility speed ETV
vector 132 RSUExampleScenario.node[26].veinsmobility speed ETV
vector 133 RSUExampleScenario.node[28].veinsmobility posx ETV
vector 134 RSUExampleScenario.node[28].veinsmobility posy ETV
vector 135 RSUExampleScenario.node[25].veinsmobility acceleration ETV
vector 136 RSUExampleScenario.node[25].veinsmobility co2emission ETV
vector 137 RSUExampleScenario.node[26].veinsmobility acceleration ETV
vector 138 RSUExampleScenario.node[26].veinsmobility co2emission ETV
vector 139 RSUExampleScenario.node[27].veinsmobility speed ETV
vector 140 RSUExampleScenario.node[29].veinsmobility posx ETV
vector 141 RSUExampleScenario.node[29].veinsmobility posy ETV
vector 142 RSUExampleScenario.node[27].veinsmobility acceleration ETV
vector 143 RSUExampleScenario.node[27].veinsmobility co2emission ETV
vector 144 RSUExampleScenario.node[28].veinsmobility speed ETV
vector 145 RSUExampleScenario.node[30].veinsmobility posx ETV
vector 146 RSUExampleScenario.node[30].veinsmobility posy ETV
vector 147 RSUExampleScenario.node[28].veinsmobility acceleration ETV
vector 148 RSUExampleScenario.node[28].veinsmobility co2emission ETV
vector 149 RSUExampleScenario.node[29].veinsmobility speed ETV
vector 150 RSUExampleScenario.node[31].veinsmobility posx ETV
vector 151 RSUExampleScenario.node[31].veinsmobility posy ETV
vector 152 RSUExampleScenario.node[29].veinsmobility acceleration ETV
vector 153 RSUExampleScenario.node[29].veinsmobility co2emission ETV
vector 154 RSUExampleScenario.node[30].veinsmobility speed ETV
vector 155 RSUExampleScenario.node[32].veinsmobility posx ETV
vector 156 RSUExampleScenario.node[32].veinsmobility posy ETV
vector 157 RSUExampleScenario.node[30].veinsmobility acceleration ETV
vector 158 RSUExampleScenario.node[30].veinsmobility co2emission ETV
vector 159 RSUExampleScenario.node[31].veinsmobility speed ETV
vector 160 RSUExampleScenario.node[31].veinsmobility acceleration ETV
vector 161 RSUExampleScenario.node[31].veinsmobility co2emission ETV
vector 162 RSUExampleScenario.node[32].veinsmobility speed ETV
vector 163 RSUExampleScenario.node[33].veinsmobility posx ETV
vector 164 RSUExampleScenario.node[33].veinsmobility posy ETV
vector 165 RSUExampleScenario.node[32].veinsmobility acceleration ETV
vector 166 RSUExampleScenario.node[32].veinsmobility co2emission ETV
vector 167 RSUExampleScenario.node[34].veinsmobility posx ETV
vector 168 RSUExampleScenario.node[34].veinsmobility posy ETV
vector 169 RSUExampleScenario.node[33].veinsmobility speed ETV
vector 170 RSUExampleScenario.node[35].veinsmobility posx ETV
vector 171 RSUExampleScenario.node[35].veinsmobility posy ETV
vector 172 RSUExampleScenario.node[33].veinsmobility acceleration ETV
vector 173 RSUExampleScenario.node[33].veinsmobility co2emission ETV
vector 174 RSUExampleScenario.node[34].veinsmobility speed ETV
vector 175 RSUExampleScenario.node[36].veinsmobility posx ETV
vector 176 RSUExampleScenario.node[36].veinsmobility posy ETV
vector 177 RSUExampleScenario.node[34].veinsmobility acceleration ETV
vector 178 RSUExampleScenario.node[34].veinsmobility co2emission ETV
vector 179 RSUExampleScenario.node[35].veinsmobility speed ETV
vector 180 RSUExampleScenario.node[37].veinsmobility posx ETV
vector 181 RSUExampleScenario.node[37].veinsmobility posy ETV
vector 182 RSUExampleScenario.node[35].veinsmobility acceleration ETV
vector 183 RSUExampleScenario.node[35].veinsmobility co2emission ETV
vector 184 RSUExampleScenario.node[36].veinsmobility speed ETV
vector 185 RSUExampleScenario.node[38].veinsmobility posx ETV
vector 186 RSUExampleScenario.node[38].veinsmobility posy ETV
vector 187 RSUExampleScenario.node[36].veinsmobility acceleration ETV
vector 188 RSUExampleScenario.node[36].veinsmobility co2emission ETV
vector 189 RSUExampleScenario.node[37].veinsmobility speed ETV
vector 190 RSUExampleScenario.node[39].veinsmobility posx ETV
vector 191 RSUExampleScenario.node[39].veinsmobility posy ETV
vector 192 RSUExampleScenario.node[37].veinsmobility acceleration ETV
vector 193 RSUExampleScenario.node[37].veinsmobility co2emission ETV
vector 194 RSUExampleScenario.node[38].veinsmobility speed ETV
vector 195 RSUExampleScenario.node[40].veinsmobility posx ETV
vector 196 RSUExampleScenario.node[40].veinsmobility posy ETV
vector 197 RSUExampleScenario.node[38].veinsmobility acceleration ETV
vector 198 RSUExampleScenario.node[38].veinsmobility co2emission ETV
vector 199 RSUExampleScenario.node[39].veinsmobility speed ETV
vector 200 RSUExampleScenario.node[41].veinsmobility posx ETV
vector 201 RSUExampleScenario.node[41].veinsmobility posy ETV
vector 202 RSUExampleScenario.node[39].veinsmobility acceleration ETV
vector 203 RSUExampleScenario.node[39].veinsmobility co2emission ETV
vector 204 RSUExampleScenario.node[40].veinsmobility speed ETV
vector 205 RSUExampleScenario.node[42].veinsmobility posx ETV
vector 206 RSUExampleScenario.node[42].veinsmobility posy ETV
vector 207 RSUExampleScenario.node[40].veinsmobility acceleration ETV
vector 208 RSUExampleScenario.node[40].veinsmobility co2emission ETV
vector 209 RSUExampleScenario.node[41].veinsmobility speed ETV
vector 210 RSUExampleScenario.node[43].veinsmobility posx ETV
vector 211 RSUExampleScenario.node[43].veinsmobility posy ETV
vector 212 RSUExampleScenario.node[41].veinsmobility acceleration ETV
vector 213 RSUExampleScenario.node[41].veinsmobility co2emission ETV
vector 214 RSUExampleScenario.node[42].veinsmobility speed ETV
vector 215 RSUExampleScenario.node[44].veinsmobility posx ETV
vector 216 RSUExampleScenario.node[44].veinsmobility posy ETV
vector 217 RSUExampleScenario.node[42].veinsmobility acceleration ETV
vector 218 RSUExampleScenario.node[42].veinsmobility co2emission ETV
vector 219 RSUExampleScenario.node[43].veinsmobility speed ETV
vector 220 RSUExampleScenario.node[45].veinsmobility posx ETV
vector 221 RSUExampleScenario.node[45].veinsmobility posy ETV
vector 222 RSUExampleScenario.node[43].veinsmobility acceleration ETV
vector 223 RSUExampleScenario.node[43].veinsmobility co2emission ETV
vector 224 RSUExampleScenario.node[44].veinsmobility speed ETV
vector 225 RSUExampleScenario.node[46].veinsmobility posx ETV
vector 226 RSUExampleScenario.node[46].veinsmobility posy ETV
vector 227 RSUExampleScenario.node[44].veinsmobility acceleration ETV
vector 228 RSUExampleScenario.node[44].veinsmobility co2emission ETV
vector 229 RSUExampleScenario.node[45].veinsmobility speed ETV
vector 230 RSUExampleScenario.node[47].veinsmobility posx ETV
vector 231 RSUExampleScenario.node[47].veinsmobility posy ETV
vector 232 RSUExampleScenario.node[45].veinsmobility acceleration ETV
vector 233 RSUExampleScenario.node[45].veinsmobility co2emission ETV
vector 234 RSUExampleScenario.node[46].veinsmobility speed ETV
vector 235 RSUExampleScenario.node[48].veinsmobility posx ETV
vector 236 RSUExampleScenario.node[48].veinsmobility posy ETV
vector 237 RSUExampleScenario.node[46].veinsmobility acceleration ETV
vector 238 RSUExampleScenario.node[46].veinsmobility co2emission ETV
vector 239 RSUExampleScenario.node[47].veinsmobility speed ETV
vector 240 RSUExampleScenario.node[47].veinsmobility acceleration ETV
vector 241 RSUExampleScenario.node[47].veinsmobility co2emission ETV
vector 242 RSUExampleScenario.node[48].veinsmobility speed ETV
vector 243 RSUExampleScenario.node[48].veinsmobility acceleration ETV
vector 244 RSUExampleScenario.node[48].veinsmobility co2emission ETV
vector 245 RSUExampleScenario.node[49].veinsmobility posx ETV
vector 246 RSUExampleScenario.node[49].veinsmobility posy ETV
vector 247 RSUExampleScenario.node[50].veinsmobility posx ETV
vector 248 RSUExampleScenario.node[50].veinsmobility posy ETV
vector 249 RSUExampleScenario.node[49].veinsmobility speed ETV
vector 250 RSUExampleScenario.node[51].veinsmobility posx ETV
vector 251 RSUExampleScenario.node[51].veinsmobility posy ETV
vector 252 RSUExampleScenario.node[49].veinsmobility acceleration ETV
vector 253 RSUExampleScenario.node[49].veinsmobility co2emission ETV
vector 254 RSUExampleScenario.node[50].veinsmobility speed ETV
vector 255 RSUExampleScenario.node[52].veinsmobility posx ETV
vector 256 RSUExampleScenario.node[52].veinsmobility posy ETV
vector 257 RSUExampleScenario.node[50].veinsmobility acceleration ETV
vector 258 RSUExampleScenario.node[50].veinsmobility co2emission ETV
vector 259 RSUExampleScenario.node[51].veinsmobility speed ETV
vector 260 RSUExampleScenario.node[53].veinsmobility posx ETV
vector 261 RSUExampleScenario.node[53].veinsmobility posy ETV
vector 262 RSUExampleScenario.node[51].veinsmobility acceleration ETV
vector 263 RSUExampleScenario.node[51].veinsmobility co2emission ETV
vector 264 RSUExampleScenario.node[52].veinsmobility speed ETV
vector 265 RSUExampleScenario.node[54].veinsmobility posx ETV
vector 266 RSUExampleScenario.node[54].veinsmobility posy ETV
vector 267 RSUExampleScenario.node[52].veinsmobility acceleration ETV
vector 268 RSUExampleScenario.node[52].veinsmobility co2emission ETV
vector 269 RSUExampleScenario.node[53].veinsmobility speed ETV
vector 270 RSUExampleScenario.node[55].veinsmobility posx ETV
vector 271 RSUExampleScenario.node[55].veinsmobility posy ETV
vector 272 RSUExampleScenario.node[53].veinsmobility acceleration ETV
vector 273 RSUExampleScenario.node[53].veinsmobility co2emission ETV
vector 274 RSUExampleScenario.node[54].veinsmobility speed ETV
vector 275 RSUExampleScenario.node[54].veinsmobility acceleration ETV
vector 276 RSUExampleScenario.node[54].veinsmobility co2emission ETV
vector 277 RSUExampleScenario.node[55].veinsmobility speed ETV
vector 278 RSUExampleScenario.node[56].veinsmobility posx ETV
vector 279 RSUExampleScenario.node[56].veinsmobility posy ETV
vector 280 RSUExampleScenario.node[55].veinsmobility acceleration ETV
vector 281 RSUExampleScenario.node[55].veinsmobility co2emission ETV
53	13	12	4.2872170979281
53	14	13	5.3586192538899
53	15	14	4.0754468610826
53	16	15	0.973
53	17	16	6.4224643275777
53	18	17	7.0478190410943
53	19	18	7.5047734047862
53	20	19	4.7574017637517
53	21	20	0.973
53	22	21	0.973
53	23	22	0.973
53	24	23	6.6164995963063
53	25	24	7.2031170067922
53	26	25	8.2639812277088
53	27	26	3.9901950982419
53	28	27	2.2690585603355
53	29	28	2.0021349703817
53	30	29	1.8975939345168
53	31	30	2.1678888181549
53	32	31	1.1111533821338
53	121	32	0.973
53	122	33	4.2575539645462
53	663	34	9.5553555212625
53	664	35	10.3239867098
53	1163	36	11.880808945038
53	1247	37	12.63242116424
53	1339	38	13.290362440103
53	1433	39	0.83993050489354
53	1537	40	0.973
53	1777	41	0.973
53	1872	42	0.973
53	2511	43	1.8069203510224
53	2512	44	1.6435048170573
53	3064	45	1.8171499521993
53	3065	46	1.5878506187772
53	3179	47	1.8937142335009
53	3180	48	1.8689195652338
53	3181	49	1.6721806676496
53	3182	50	0.973
53	3183	51	0.973
53	3184	52	0.973
53	3185	53	3.1217317396893
53	3186	54	5.1836600983021
53	3187	55	6.3329429680563
53	3312	56	3.5016513808831
53	3313	57	1.7739489328301
53	3729	58	1.6893340563051
53	3730	59	1.6784610686636
53	4026	60	1.9690125287372
53	4027	61	1.7169427055463
53	4028	62	1.61784247947
52	13	12	1.966985841773
52	14	13	1.9738529847632
52	15	14	1.1151117176417
52	16	15	-1.6347037690336
52	17	16	2.0687841801858
52	18	17	1.8983225756604
52	19	18	1.7419857183383
52	20	19	0.80465768781519
52	21	20	-0.55269460982526
52	22	21	-4.4566324174505
52	23	22	-1.66
52	24	23	2.167605044907
52	25	24	1.9546172392555
52	26	25	1.9445646352158
52	27	26	0.57914636947411
52	28	27	0.066289214943536
52	29	28	-0.01215334276203
52	30	29	-0.04189600614831
52	31	30	0.036985193602742
52	32	31	-0.2724538363072
52	121	32	-1.8126553274342
52	122	33	0.76477622990264
52	663	34	2.0834344574995
52	664	35	1.9714430916403
52	1163	36	2.0398393864487
52	1247	37	1.938771768224
52	1339	38	1.8412476529344
52	1433	39	-0.43887459754718
52	1537	40	-4.4111424454371
52	1777	41	-4.4812932914472
52	1872	42	-2.8171757700737
52	2511	43	0.033744935304858
52	2512	44	-0.030119772285689
52	3064	45	0.037538287066853
52	3065	46	-0.051848500920459
52	3179	47	0.067258512373082
52	3180	48	0.055438302792609
52	3181	49	-0.021277701747604
52	3182	50	-0.29389019579277
52	3183	51	-4.2632095600086
52	3184	52	-1.3504002230149
52	3185	53	1.2154437750834
52	3186	54	1.9466197115974
52	3187	55	1.9813126936648
52	3312	56	0.70508927118181
52	3313	57	0.020090549052693
52	3729	58	-0.012973043043166
52	3730	59	-0.016781313288957
52	4026	60	0.09459777784301
52	4027	61	-0.0043104911898268
52	4028	62	-0.042123814525548
49	12	11	4.0772753175295
49	13	12	6.0442611593025
49	14	13	8.0181141440657
49	15	14	9.1332258617074
49	16	15	7.4985220926738
49	17	16	9.5673062728595
49	18	17	11.46562884852
49	19	18	13.207614566858
49	20	19	14.012272254673
49	21	20	13.459577644848
49	22	21	9.0029452273977
49	23	22	7.3429452273977
49	24	23	9.5105502723047
49	25	24	11.46516751156
49	26	25	13.409732146776
49	27	26	13.98887851625
49	28	27	14.055167731194
49	29	28	14.043014388432
49	30	29	14.001118382283
49	31	30	14.038103575886
49	32	31	13.765649739579
49	121	32	11.952994412145
49	122	33	12.717770642047
49	663	34	14.801205099547
49	664	35	16.772648191187
49	1163	36	18.812487577636
49	1247	37	20.75125934586
49	1339	38	22.592506998794
49	1433	39	22.153632401247
49	1537	40	17.74248995581
49	1777	41	13.261196664363
49	1872	42	10.444020894289
49	2511	43	10.477765829594
49	2512	44	10.447646057308
49	3064	45	10.485184344375
49	3065	46	10.433335843454
49	3179	47	10.500594355828
49	3180	48	10.55603265862
49	3181	49	10.534754956873
49	3182	50	10.24086476108
49	3183	51	5.9776552010712
49	3184	52	4.6272549780564
49	3185	53	5.8426987531398
49	3186	54	7.7893184647372
49	3187	55	9.770631158402
49	3312	56	10.475720429584
49	3313	57	10.495810978637
49	3729	58	10.482837935593
49	3730	59	10.466056622304
49	4026	60	10.560654400147
49	4027	61	10.556343908958
49	4028	62	10.514220094432
41	11	10	801.70292596596
41	12	11	800.03354384691
41	13	12	797.29058936574
41	14	13	793.53809389872
41	15	14	788.80110047688
41	16	15	784.88329599034
41	17	16	780.56645296528
41	18	17	778.82718628534
41	19	18	788.92842311416
41	20	19	800.86498237585
41	21	20	812.83181522095
41	22	21	822.26473815855
41	23	22	827.73824922197
41	24	23	827.48391752292
41	25	24	822.10166243665
41	26	25	815.47557382528
41	27	26	808.08961148368
41	28	27	800.68839998102
41	29	28	793.28022063025
41	30	29	785.8858706508
41	31	30	778.46908036616
41	32	31	771.07731560786
41	121	32	765.66100876448
41	122	33	770.35747192351
41	663	34	782.26905331416
41	664	35	795.89330698874
41	1163	36	811.25824602631
41	1247	37	828.34347972595
41	1339	38	847.04271639212
41	1433	39	866.8796450174
41	1537	40	883.87668938881
41	1777	41	896.99681640861
41	1872	42	906.58394109331
41	2511	43	915.57867526832
41	2512	44	924.54276350129
41	3064	45	933.52880691877
41	3065	46	942.4921734094
41	3179	47	951.47452135756
41	3180	48	960.46546188082
41	3181	49	969.4504163134
41	3182	50	978.40048923319
41	3183	51	985.08568880501
41	3184	52	988.19852359159
41	3185	53	984.34692678833
41	3186	54	978.43562626404
41	3187	55	970.89362358247
41	3312	56	962.02469939409
41	3313	57	953.04818995925
41	3729	58	944.07505925171
41	3730	59	935.10100547453
41	4026	60	926.0976478606
41	4027	61	917.1130596524
41	4028	62	908.13061887481
40	11	10	1035.5748658357
40	12	11	1032.9049705555
40	13	12	1028.5180772616
40	14	13	1022.5165933461
40	15	14	1014.9405709155
40	16	15	1008.6747030906
40	17	16	1001.1338104367
40	18	17	991.08994862226
40	19	18	984.21111309868
40	20	19	977.00483946072
40	21	20	969.78028922217
40	22	21	964.08549707949
40	23	22	959.51630123703
40	24	23	951.43767800253
40	25	24	942.26825348718
40	26	25	931.61791249018
40	27	26	919.74620021125
40	28	27	907.844009846
40	29	28	895.92678323455
40	30	29	884.03247792989
40	31	30	872.10207589706
40	32	31	860.2119290931
40	121	32	849.26749097812
40	122	33	839.13975564152
40	663	34	832.03582569551
40	664	35	823.91787046834
40	1163	36	814.75026133866
40	1247	37	804.47951671871
40	1339	38	793.38526273687
40	1433	39	781.61601630626
40	1537	40	771.53167272778
40	1777	41	763.68791015483
40	1872	42	757.91543760159
40	2511	43	752.46846567353
40	2512	44	747.04005211337
40	3064	45	741.59834307706
40	3065	46	736.17036658487
40	3179	47	730.73061952596
40	3180	48	725.2856701031
40	3181	49	719.84665969913
40	3182	50	714.42876469563
40	3183	51	710.381902767
40	3184	52	711.53005499197
40	3185	53	714.56793140953
40	3186	54	718.14631628547
40	3187	55	722.71184094779
40	3312	56	728.0806128536
40	3313	57	733.51685508687
40	3729	58	738.95040151655
40	3730	59	744.38409102485
40	4026	60	749.8355236796
40	4027	61	755.27559166845
40	4028	62	760.71435941199
vector 282 RSUExampleScenario.node[57].veinsmobility posx ETV
vector 283 RSUExampleScenario.node[57].veinsmobility posy ETV
vector 284 RSUExampleScenario.node[56].veinsmobility speed ETV
vector 285 RSUExampleScenario.node[58].veinsmobility posx ETV
vector 286 RSUExampleScenario.node[58].veinsmobility posy ETV
vector 287 RSUExampleScenario.node[56].veinsmobility acceleration ETV
vector 288 RSUExampleScenario.node[56].veinsmobility co2emission ETV
vector 289 RSUExampleScenario.node[57].veinsmobility speed ETV
vector 290 RSUExampleScenario.node[59].veinsmobility posx ETV
vector 291 RSUExampleScenario.node[59].veinsmobility posy ETV
vector 292 RSUExampleScenario.node[57].veinsmobility acceleration ETV
vector 293 RSUExampleScenario.node[57].veinsmobility co2emission ETV
vector 294 RSUExampleScenario.node[58].veinsmobility speed ETV
vector 295 RSUExampleScenario.node[60].veinsmobility posx ETV
vector 296 RSUExampleScenario.node[60].veinsmobility posy ETV
vector 297 RSUExampleScenario.node[58].veinsmobility acceleration ETV
vector 298 RSUExampleScenario.node[58].veinsmobility co2emission ETV
vector 299 RSUExampleScenario.node[59].veinsmobility speed ETV
vector 300 RSUExampleScenario.node[61].veinsmobility posx ETV
vector 301 RSUExampleScenario.node[61].veinsmobility posy ETV
vector 302 RSUExampleScenario.node[59].veinsmobility acceleration ETV
vector 303 RSUExampleScenario.node[59].veinsmobility co2emission ETV
vector 304 RSUExampleScenario.node[60].veinsmobility speed ETV
vector 305 RSUExampleScenario.node[62].veinsmobility posx ETV
vector 306 RSUExampleScenario.node[62].veinsmobility posy ETV
vector 307 RSUExampleScenario.node[60].veinsmobility acceleration ETV
vector 308 RSUExampleScenario.node[60].veinsmobility co2emission ETV
vector 309 RSUExampleScenario.node[61].veinsmobility speed ETV
vector 310 RSUExampleScenario.node[63].veinsmobility posx ETV
vector 311 RSUExampleScenario.node[63].veinsmobility posy ETV
vector 312 RSUExampleScenario.node[61].veinsmobility acceleration ETV
vector 313 RSUExampleScenario.node[61].veinsmobility co2emission ETV
vector 314 RSUExampleScenario.node[62].veinsmobility speed ETV
vector 315 RSUExampleScenario.node[64].veinsmobility posx ETV
vector 316 RSUExampleScenario.node[64].veinsmobility posy ETV
vector 317 RSUExampleScenario.node[62].veinsmobility acceleration ETV
vector 318 RSUExampleScenario.node[62].veinsmobility co2emission ETV
vector 319 RSUExampleScenario.node[63].veinsmobility speed ETV
vector 320 RSUExampleScenario.node[65].veinsmobility posx ETV
vector 321 RSUExampleScenario.node[65].veinsmobility posy ETV
vector 322 RSUExampleScenario.node[63].veinsmobility acceleration ETV
vector 323 RSUExampleScenario.node[63].veinsmobility co2emission ETV
vector 324 RSUExampleScenario.node[64].veinsmobility speed ETV
vector 325 RSUExampleScenario.node[66].veinsmobility posx ETV
vector 326 RSUExampleScenario.node[66].veinsmobility posy ETV
vector 327 RSUExampleScenario.node[64].veinsmobility acceleration ETV
vector 328 RSUExampleScenario.node[64].veinsmobility co2emission ETV
vector 329 RSUExampleScenario.node[65].veinsmobility speed ETV
vector 330 RSUExampleScenario.node[67].veinsmobility posx ETV
vector 331 RSUExampleScenario.node[67].veinsmobility posy ETV
vector 332 RSUExampleScenario.node[65].veinsmobility acceleration ETV
vector 333 RSUExampleScenario.node[65].veinsmobility co2emission ETV
vector 334 RSUExampleScenario.node[66].veinsmobility speed ETV
vector 335 RSUExampleScenario.node[68].veinsmobility posx ETV
vector 336 RSUExampleScenario.node[68].veinsmobility posy ETV
vector 337 RSUExampleScenario.node[66].veinsmobility acceleration ETV
vector 338 RSUExampleScenario.node[66].veinsmobility co2emission ETV
vector 339 RSUExampleScenario.node[67].veinsmobility speed ETV
vector 340 RSUExampleScenario.node[69].veinsmobility posx ETV
vector 341 RSUExampleScenario.node[69].veinsmobility posy ETV
vector 342 RSUExampleScenario.node[67].veinsmobility acceleration ETV
vector 343 RSUExampleScenario.node[67].veinsmobility co2emission ETV
vector 344 RSUExampleScenario.node[68].veinsmobility speed ETV
vector 345 RSUExampleScenario.node[70].veinsmobility posx ETV
vector 346 RSUExampleScenario.node[70].veinsmobility posy ETV
vector 347 RSUExampleScenario.node[68].veinsmobility acceleration ETV
vector 348 RSUExampleScenario.node[68].veinsmobility co2emission ETV
vector 349 RSUExampleScenario.node[69].veinsmobility speed ETV
vector 350 RSUExampleScenario.node[71].veinsmobility posx ETV
vector 351 RSUExampleScenario.node[71].veinsmobility posy ETV
vector 352 RSUExampleScenario.node[69].veinsmobility acceleration ETV
vector 353 RSUExampleScenario.node[69].veinsmobility co2emission ETV
vector 354 RSUExampleScenario.node[70].veinsmobility speed ETV
vector 355 RSUExampleScenario.node[72].veinsmobility posx ETV
vector 356 RSUExampleScenario.node[72].veinsmobility posy ETV
vector 357 RSUExampleScenario.node[70].veinsmobility acceleration ETV
vector 358 RSUExampleScenario.node[70].veinsmobility co2emission ETV
vector 359 RSUExampleScenario.node[71].veinsmobility speed ETV
83	20	19	4.5356636842216
83	21	20	6.2227463934177
83	22	21	7.1322563702195
83	23	22	0.973
83	24	23	0.973
83	25	24	0.973
83	26	25	0.973
83	27	26	0.973
83	28	27	0.973
83	29	28	0.973
83	30	29	0.973
83	31	30	0.973
83	32	31	0.973
83	121	32	0.973
83	122	33	0.973
83	663	34	0.973
83	664	35	0.973
83	1163	36	0.973
83	1247	37	0.973
83	1339	38	0.973
83	1433	39	0.973
83	1537	40	0.973
83	1777	41	0.973
83	1872	42	0.973
83	2511	43	0.973
83	2512	44	0.973
83	3064	45	0.973
83	3065	46	0.973
83	3179	47	0.973
83	3180	48	0.973
83	3181	49	0.973
83	3182	50	0.973
83	3183	51	0.973
83	3184	52	0.973
83	3185	53	0.973
83	3186	54	0.973
83	3187	55	0.973
83	3312	56	0.973
83	3313	57	0.973
83	3729	58	0.973
83	3730	59	0.973
83	4026	60	0.973
83	4027	61	2.5020700137521
83	4028	62	3.5186629054695
83	4029	63	3.8907064543532
83	4030	64	4.9264437810825
83	4172	65	3.2657622644128
83	4173	66	1.4115353366316
83	4325	67	1.7599181533844
83	4326	68	1.5562401519119
83	4480	69	1.5694486224844
83	4481	70	1.5270659433445
83	4482	71	1.5925733845257
83	4645	72	1.5306116024524
83	4646	73	1.4918608783901
83	4982	74	0.973
83	4983	75	3.6304245761727
83	4984	76	1.584237416735
83	4985	77	1.561243180287
83	4986	78	1.7689174266497
82	20	19	2.0894630526984
82	21	20	2.2826308512851
82	22	21	2.1206264113658
82	23	22	-3.2335374751694
82	24	23	-4.4721100524072
82	25	24	-2.8664638007795
82	26	25	0
82	27	26	0
82	28	27	0
82	29	28	0
82	30	29	0
82	31	30	0
82	32	31	0
82	121	32	0
82	122	33	0
82	663	34	0
82	664	35	0
82	1163	36	0
82	1247	37	0
82	1339	38	0
82	1433	39	0
82	1537	40	0
82	1777	41	0
82	1872	42	0
82	2511	43	0
82	2512	44	0
82	3064	45	0
82	3065	46	0
82	3179	47	0
82	3180	48	0
82	3181	49	0
82	3182	50	0
82	3183	51	0
82	3184	52	0
82	3185	53	0
82	3186	54	0
82	3187	55	0
82	3312	56	0
82	3313	57	0
82	3729	58	0
82	3730	59	0
82	4026	60	0
82	4027	61	2.3044024259724
82	4028	62	2.0747586454998
82	4029	63	1.6875981587358
82	4030	64	1.7913820117107
82	4172	65	0.80376529045304
82	4173	66	-0.082543579132761
82	4325	67	0.082415045080706
82	4326	68	-0.01469501218293
82	4480	69	-0.0080965386517331
82	4481	70	-0.027627920364031
82	4482	71	0.0038088450953371
82	4645	72	-0.025271538251545
82	4646	73	-0.042785769947075
82	4982	74	-0.95
82	4983	75	0.98953273011531
82	4984	76	0.00071694171754544
82	4985	77	-0.010071493259165
82	4986	78	0.086633747671732
79	19	18	4.0793910130068
79	20	19	6.1688540657052
79	21	20	8.4514849169902
79	22	21	10.572111328356
79	23	22	7.3385738531867
79	24	23	2.8664638007795
79	25	24	0
79	26	25	0
79	27	26	0
79	28	27	0
79	29	28	0
79	30	29	0
79	31	30	0
79	32	31	0
79	121	32	0
79	122	33	0
79	663	34	0
79	664	35	0
79	1163	36	0
79	1247	37	0
79	1339	38	0
79	1433	39	0
79	1537	40	0
79	1777	41	0
79	1872	42	0
79	2511	43	0
79	2512	44	0
79	3064	45	0
79	3065	46	0
79	3179	47	0
79	3180	48	0
79	3181	49	0
79	3182	50	0
79	3183	51	0
79	3184	52	0
79	3185	53	0
79	3186	54	0
79	3187	55	0
79	3312	56	0
79	3313	57	0
79	3729	58	0
79	3730	59	0
79	4026	60	0
79	4027	61	2.3044024259724
79	4028	62	4.3791610714721
79	4029	63	6.0667592302079
79	4030	64	7.8581412419186
79	4172	65	8.6619065323716
79	4173	66	8.5793629532388
79	4325	67	8.6617779983196
79	4326	68	8.6470829861366
79	4480	69	8.6389864474849
79	4481	70	8.6113585271209
79	4482	71	8.6151673722162
79	4645	72	8.5898958339647
79	4646	73	8.5471100640176
79	4982	74	7.5971100640176
79	4983	75	8.5866427941329
79	4984	76	8.5873597358504
79	4985	77	8.5772882425913
79	4986	78	8.663921990263
71	18	17	479.91378180617
71	19	18	478.03339933015
71	20	19	474.78410690904
71	21	20	470.26140268853
71	22	21	465.41408166571
71	23	22	460.74314840857
71	24	23	458.28906704038
71	25	24	457.89318847116
71	26	25	457.89318847116
71	27	26	457.89318847116
71	28	27	457.89318847116
71	29	28	457.89318847116
71	30	29	457.89318847116
71	31	30	457.89318847116
71	32	31	457.89318847116
71	121	32	457.89318847116
71	122	33	457.89318847116
71	663	34	457.89318847116
71	664	35	457.89318847116
71	1163	36	457.89318847116
71	1247	37	457.89318847116
71	1339	38	457.89318847116
71	1433	39	457.89318847116
71	1537	40	457.89318847116
71	1777	41	457.89318847116
71	1872	42	457.89318847116
71	2511	43	457.89318847116
71	2512	44	457.89318847116
71	3064	45	457.89318847116
71	3065	46	457.89318847116
71	3179	47	457.89318847116
71	3180	48	457.89318847116
71	3181	49	457.89318847116
71	3182	50	457.89318847116
71	3183	51	457.89318847116
71	3184	52	457.89318847116
71	3185	53	457.89318847116
71	3186	54	457.89318847116
71	3187	55	457.89318847116
71	3312	56	457.89318847116
71	3313	57	457.89318847116
71	3729	58	457.89318847116
71	3730	59	457.89318847116
71	4026	60	457.89318847116
71	4027	61	457.20800683247
71	4028	62	455.00625282878
71	4029	63	450.37188656376
71	4030	64	443.65613408582
71	4172	65	436.47618633672
71	4173	66	429.27726026798
71	4325	67	422.03959061885
71	4326	68	414.80444080577
71	4480	69	407.49120393751
71	4481	70	400.18099450484
71	4482	71	392.84321939588
71	4645	72	385.51213303273
71	4646	73	378.1844824346
71	4982	74	371.70423385525
71	4983	75	364.57962980351
71	4984	76	359.6535209897
71	4985	77	355.09988857988
71	4986	78	350.54008654606
70	18	17	1780.1233167695
70	19	18	1777.5251119375
70	20	19	1773.4338024445
70	21	20	1767.5293290586
70	22	21	1759.307419142
70	23	22	1751.2757431674
70	24	23	1747.0559469768
70	25	24	1746.3752332483
70	26	25	1746.3752332483
70	27	26	1746.3752332483
70	28	27	1746.3752332483
70	29	28	1746.3752332483
70	30	29	1746.3752332483
70	31	30	1746.3752332483
70	32	31	1746.3752332483
70	121	32	1746.3752332483
70	122	33	1746.3752332483
70	663	34	1746.3752332483
70	664	35	1746.3752332483
70	1163	36	1746.3752332483
70	1247	37	1746.3752332483
70	1339	38	1746.3752332483
70	1433	39	1746.3752332483
70	1537	40	1746.3752332483
70	1777	41	1746.3752332483
70	1872	42	1746.3752332483
70	2511	43	1746.3752332483
70	2512	44	1746.3752332483
70	3064	45	1746.3752332483
70	3065	46	1746.3752332483
70	3179	47	1746.3752332483
70	3180	48	1746.3752332483
70	3181	49	1746.3752332483
70	3182	50	1746.3752332483
70	3183	51	1746.3752332483
70	3184	52	1746.3752332483
70	3185	53	1746.3752332483
70	3186	54	1746.3752332483
70	3187	55	1746.3752332483
70	3312	56	1746.3752332483
70	3313	57	1746.3752332483
70	3729	58	1746.3752332483
70	3730	59	1746.3752332483
70	4026	60	1746.3752332483
70	4027	61	1745.2839453288
70	4028	62	1742.5491350926
70	4029	63	1740.3319799188
70	4030	64	1742.2258173815
70	4172	65	1746.7742282875
70	4173	66	1751.4537374648
70	4325	67	1756.1268784981
70	4326	68	1760.7637221114
70	4480	69	1765.2753346401
70	4481	70	1769.785079512
70	4482	71	1774.3118299388
70	4645	72	1778.8344540081
70	4646	73	1783.3549585179
70	4982	74	1786.0622867019
70	4983	75	1782.1504704377
70	4984	76	1775.0986750286
70	4985	77	1767.8016657161
70	4986	78	1760.4947698341
vector 360 RSUExampleScenario.node[73].veinsmobility posx ETV
vector 361 RSUExampleScenario.node[73].veinsmobility posy ETV
vector 362 RSUExampleScenario.node[71].veinsmobility acceleration ETV
vector 363 RSUExampleScenario.node[71].veinsmobility co2emission ETV
vector 364 RSUExampleScenario.node[72].veinsmobility speed ETV
vector 365 RSUExampleScenario.node[74].veinsmobility posx ETV
vector 366 RSUExampleScenario.node[74].veinsmobility posy ETV
vector 367 RSUExampleScenario.node[72].veinsmobility acceleration ETV
vector 368 RSUExampleScenario.node[72].veinsmobility co2emission ETV
vector 369 RSUExampleScenario.node[73].veinsmobility speed ETV
153	122	33	4.0121130603636
153	663	34	5.2735097184938
153	664	35	0.973
153	1163	36	0.973
153	1247	37	2.587190072193
153	1339	38	4.4773591858655
153	1433	39	1.6083444686016
153	1537	40	1.3650055175565
153	1777	41	1.6088685536874
153	1872	42	0.973
153	2511	43	2.6329500351898
153	2512	44	1.376379317736
153	3064	45	5.7341864700596
153	3065	46	1.5697984486297
153	3179	47	1.6700999950821
153	3180	48	1.5442622955788
153	3181	49	1.5084107209118
153	3182	50	1.4872644453117
153	3183	51	1.7677040221884
153	3184	52	1.5292663600114
153	3185	53	1.5074535085359
153	3186	54	1.537167308245
153	3187	55	1.6012722920814
153	3312	56	1.7839435345065
153	3313	57	1.3804690967394
153	3729	58	1.6426000931811
153	3730	59	1.5384769275246
153	4026	60	1.7248770030519
153	4027	61	1.4563920272046
153	4028	62	1.6827890468188
153	4029	63	1.5873950660188
153	4030	64	1.5084828236607
153	4172	65	1.7986491149059
153	4173	66	1.5950468702725
153	4325	67	1.6261578886596
153	4326	68	1.4413930568227
153	4480	69	0.973
153	4481	70	0.973
153	4482	71	1.4761208521021
153	4645	72	4.2305157958297
153	4646	73	5.6873328807404
153	4982	74	2.7983025448805
153	4983	75	1.6946458164814
153	4984	76	1.4895070165161
153	4985	77	1.6531585505402
153	4986	78	1.6265745064286
153	4987	79	1.5919874012614
153	4988	80	1.6229986902735
152	122	33	1.8378314479371
152	663	34	1.9774991789157
152	664	35	-0.40850497318189
152	1163	36	-0.6523546784916
152	1247	37	0.60772784338798
152	1339	38	1.3653706394877
152	1433	39	0.0062479322939168
152	1537	40	-0.10672729661455
152	1777	41	0.0097841848968532
152	1872	42	-2.5311358649206
152	2511	43	0.7052390296078
152	2512	44	-0.055018474599346
152	3064	45	1.9629054937181
152	3065	46	-0.011170671514702
152	3179	47	0.035144500385504
152	3180	48	-0.023641493432224
152	3181	49	-0.039517589912284
152	3182	50	-0.048266199787612
152	3183	51	0.082516328927595
152	3184	52	-0.029719054934104
152	3185	53	-0.038992070883978
152	3186	54	-0.02405692725908
152	3187	55	0.0064612058340572
152	3312	56	0.090057978467085
152	3313	57	-0.099133311430924
152	3729	58	0.025663989568129
152	3730	59	-0.023417820509056
152	4026	60	0.063393956783694
152	4027	61	-0.062792698482518
152	4028	62	0.044071529461071
152	4029	63	-0.0013889183173887
152	4030	64	-0.037952874177135
152	4172	65	0.096800390698482
152	4173	66	0.00030278722755561
152	4325	67	0.014542594845407
152	4326	68	-0.071111938878895
152	4480	69	-2.1586285322065
152	4481	70	-2.6952072215465
152	4482	71	0.17179110954516
152	4645	72	1.9543776055402
152	4646	73	2.1214878570382
152	4982	74	0.57881332149842
152	4983	75	0.048850971874781
152	4984	76	-0.047448396522086
152	4985	77	0.02975518379826
152	4986	78	0.016504596541637
152	4987	79	4.4594001956e-05
152	4988	80	0.014305919220204
149	121	32	4.0328366236408
149	122	33	5.8706680715778
149	663	34	7.8481672504936
149	664	35	7.4396622773117
149	1163	36	6.7873075988201
149	1247	37	7.395035442208
149	1339	38	8.7604060816957
149	1433	39	8.7666540139896
149	1537	40	8.6599267173751
149	1777	41	8.6697109022719
149	1872	42	6.1385750373514
149	2511	43	6.8438140669592
149	2512	44	6.7887955923598
149	3064	45	8.751701086078
149	3065	46	8.7405304145633
149	3179	47	8.7756749149488
149	3180	48	8.7520334215166
149	3181	49	8.7125158316043
149	3182	50	8.6642496318167
149	3183	51	8.7467659607443
149	3184	52	8.7170469058102
149	3185	53	8.6780548349262
149	3186	54	8.6539979076671
149	3187	55	8.6604591135012
149	3312	56	8.7505170919682
149	3313	57	8.6513837805373
149	3729	58	8.6770477701055
149	3730	59	8.6536299495964
149	4026	60	8.7170239063801
149	4027	61	8.6542312078976
149	4028	62	8.6983027373586
149	4029	63	8.6969138190413
149	4030	64	8.6589609448641
149	4172	65	8.7557613355626
149	4173	66	8.7560641227902
149	4325	67	8.7706067176356
149	4326	68	8.6994947787567
149	4480	69	6.5408662465502
149	4481	70	3.8456590250036
149	4482	71	4.0174501345488
149	4645	72	5.971827740089
149	4646	73	8.0933155971271
149	4982	74	8.6721289186256
149	4983	75	8.7209798905003
149	4984	76	8.6735314939783
149	4985	77	8.7032866777765
149	4986	78	8.7197912743182
149	4987	79	8.7198358683201
149	4988	80	8.7341417875403
141	32	31	1144.1613256089
141	121	32	1142.4731865108
141	122	33	1139.8268580417
141	663	34	1136.1704940523
141	664	35	1132.3436233543
141	1163	36	1127.2745762728
141	1247	37	1121.0390397799
141	1339	38	1113.9146005461
141	1433	39	1106.5130891379
141	1537	40	1099.1095089565
141	1777	41	1091.7282826209
141	1872	42	1085.0701986157
141	2511	43	1079.5993323446
141	2512	44	1080.1723674706
141	3064	45	1084.3348493946
141	3065	46	1088.952481078
141	3179	47	1093.5777427158
141	3180	48	1097.9870954725
141	3181	49	1100.4448993304
141	3182	50	1094.6812702875
141	3183	51	1087.2919137595
141	3184	52	1079.90308547
141	3185	53	1072.5274377023
141	3186	54	1065.1524024089
141	3187	55	1057.7814681098
141	3312	56	1050.3896636656
141	3313	57	1043.0059906812
141	3729	58	1035.6192399784
141	3730	59	1028.2574422286
141	4026	60	1020.9016591921
141	4027	61	1013.5763098726
141	4028	62	1006.2748031129
141	4029	63	998.98363560824
141	4030	64	991.63590533618
141	4172	65	984.20757666908
141	4173	66	976.78637455209
141	4325	67	969.35656511348
141	4326	68	961.94577328225
141	4480	69	955.08358649111
141	4481	70	951.02026413701
141	4482	71	951.43736832701
141	4645	72	955.78038567732
141	4646	73	961.92910963447
141	4982	74	969.27476889574
141	4983	75	976.70995244577
141	4984	76	984.14448005963
141	4985	77	991.57100811683
141	4986	78	998.90357982977
141	4987	79	1006.179707822
141	4988	80	1013.4807895759
140	32	31	1806.2502414605
140	121	32	1803.5254512631
140	122	33	1799.2540675369
140	663	34	1793.3524064904
140	664	35	1787.1755341131
140	1163	36	1783.0063808574
140	1247	37	1785.7385568717
140	1339	38	1790.1731568029
140	1433	39	1794.7802200264
140	1537	40	1799.3885709556
140	1777	41	1803.9830077564
140	1872	42	1808.1273253514
140	2511	43	1812.154424874
140	2512	44	1818.4439769327
140	3064	45	1825.1065495623
140	3065	46	1832.4976462755
140	3179	47	1839.9009556845
140	3180	48	1847.4123908088
140	3181	49	1855.6131542387
140	3182	50	1861.4892060703
140	3183	51	1866.1075539003
140	3184	52	1870.7263941636
140	3185	53	1875.3391864998
140	3186	54	1879.9527258021
140	3187	55	1884.5636996797
140	3312	56	1889.190095574
140	3313	57	1893.8092566019
140	3729	58	1898.4288344408
140	3730	59	1903.0328070273
140	4026	60	1907.7109494744
140	4027	61	1912.4462411427
140	4028	62	1917.1757397073
140	4029	63	1921.9520117932
140	4030	64	1926.617193992
140	4172	65	1931.1777926129
140	4173	66	1935.7340159112
140	4325	67	1940.2955236471
140	4326	68	1944.8453555837
140	4480	69	1949.0583732111
140	4481	70	1950.5206896637
140	4482	71	1947.551530069
140	4645	72	1944.8841077184
140	4646	73	1941.1076448615
140	4982	74	1936.5960405752
140	4983	75	1932.029451685
140	4984	76	1927.4632656619
140	4985	77	1922.901992858
140	4986	78	1918.1900555108
140	4987	79	1913.4307353426
140	4988	80	1908.7012291416
vector 370 RSUExampleScenario.node[75].veinsmobility posx ETV
vector 371 RSUExampleScenario.node[75].veinsmobility posy ETV
vector 372 RSUExampleScenario.node[73].veinsmobility acceleration ETV
vector 373 RSUExampleScenario.node[73].veinsmobility co2emission ETV
vector 374 RSUExampleScenario.node[74].veinsmobility speed ETV
vector 375 RSUExampleScenario.node[76].veinsmobility posx ETV
vector 376 RSUExampleScenario.node[76].veinsmobility posy ETV
vector 377 RSUExampleScenario.node[74].veinsmobility acceleration ETV
vector 378 RSUExampleScenario.node[74].veinsmobility co2emission ETV
vector 379 RSUExampleScenario.node[75].veinsmobility speed ETV
vector 380 RSUExampleScenario.node[77].veinsmobility posx ETV
vector 381 RSUExampleScenario.node[77].veinsmobility posy ETV
vector 382 RSUExampleScenario.node[75].veinsmobility acceleration ETV
vector 383 RSUExampleScenario.node[75].veinsmobility co2emission ETV
vector 384 RSUExampleScenario.node[76].veinsmobility speed ETV
vector 385 RSUExampleScenario.node[78].veinsmobility posx ETV
vector 386 RSUExampleScenario.node[78].veinsmobility posy ETV
vector 387 RSUExampleScenario.node[76].veinsmobility acceleration ETV
vector 388 RSUExampleScenario.node[76].veinsmobility co2emission ETV
vector 389 RSUExampleScenario.node[77].veinsmobility speed ETV
vector 390 RSUExampleScenario.node[79].veinsmobility posx ETV
vector 391 RSUExampleScenario.node[79].veinsmobility posy ETV
vector 392 RSUExampleScenario.node[77].veinsmobility acceleration ETV
vector 393 RSUExampleScenario.node[77].veinsmobility co2emission ETV
vector 394 RSUExampleScenario.node[78].veinsmobility speed ETV
vector 395 RSUExampleScenario.node[80].veinsmobility posx ETV
vector 396 RSUExampleScenario.node[80].veinsmobility posy ETV
vector 397 RSUExampleScenario.node[78].veinsmobility acceleration ETV
vector 398 RSUExampleScenario.node[78].veinsmobility co2emission ETV
vector 399 RSUExampleScenario.node[79].veinsmobility speed ETV
vector 400 RSUExampleScenario.node[81].veinsmobility posx ETV
vector 401 RSUExampleScenario.node[81].veinsmobility posy ETV
vector 402 RSUExampleScenario.node[79].veinsmobility acceleration ETV
vector 403 RSUExampleScenario.node[79].veinsmobility co2emission ETV
vector 404 RSUExampleScenario.node[80].veinsmobility speed ETV
vector 405 RSUExampleScenario.node[82].veinsmobility posx ETV
vector 406 RSUExampleScenario.node[82].veinsmobility posy ETV
vector 407 RSUExampleScenario.node[80].veinsmobility acceleration ETV
vector 408 RSUExampleScenario.node[80].veinsmobility co2emission ETV
vector 409 RSUExampleScenario.node[81].veinsmobility speed ETV
vector 410 RSUExampleScenario.node[83].veinsmobility posx ETV
vector 411 RSUExampleScenario.node[83].veinsmobility posy ETV
vector 412 RSUExampleScenario.node[81].veinsmobility acceleration ETV
vector 413 RSUExampleScenario.node[81].veinsmobility co2emission ETV
vector 414 RSUExampleScenario.node[82].veinsmobility speed ETV
233	3182	50	3.767070400955
233	3183	51	5.4723341578713
233	3184	52	5.9883105884175
233	3185	53	1.7610267402798
233	3186	54	1.7869746490944
233	3187	55	1.6047668841933
233	3312	56	1.7710607294771
233	3313	57	1.538802344929
233	3729	58	1.7762982347676
233	3730	59	1.6124350371123
233	4026	60	1.6457720699465
233	4027	61	0.973
233	4028	62	6.2639973065227
233	4029	63	4.6512469263647
233	4030	64	1.5092677913408
233	4172	65	1.6438692242025
233	4173	66	1.8091536325257
233	4325	67	1.7693429704371
233	4326	68	1.4427597066727
233	4480	69	1.7560052704273
233	4481	70	1.6461573047048
233	4482	71	1.5431704606215
233	4645	72	1.8815296908966
233	4646	73	1.6373010530614
233	4982	74	1.6185927348651
233	4983	75	1.6919446241181
233	4984	76	1.5576938295951
233	4985	77	1.8697058947951
233	4986	78	1.5879819430012
233	4987	79	1.6653709909167
233	4988	80	1.6668401022676
233	5155	81	1.760027573132
233	5156	82	1.604421004251
233	5499	83	1.668687932099
233	5501	84	0.973
233	6133	85	6.1553489264112
233	6134	86	4.1575330038842
233	6983	87	1.7480560148828
233	6984	88	1.606096709667
233	7842	89	1.5610273253982
232	3182	50	1.6851648778142
232	3183	51	2.0728449954395
232	3184	52	1.8448520501487
232	3185	53	0.039896595675964
232	3186	54	0.049113738834858
232	3187	55	-0.027134360240307
232	3312	56	0.041856380787213
232	3313	57	-0.05476266019512
232	3729	58	0.044440732877701
232	3730	59	-0.024100958972703
232	4026	60	-0.0096815140498805
232	4027	61	-3.5123610680334
232	4028	62	2.2739847285906
232	4029	63	1.2611060474294
232	4030	64	-0.066476882647256
232	4172	65	-0.0088708467641858
232	4173	66	0.059344491267112
232	4325	67	0.041001378502697
232	4326	68	-0.094733782245312
232	4480	69	0.03740275000222
232	4481	70	-0.0089473126200037
232	4482	71	-0.051344681372866
232	4645	72	0.089488009936176
232	4646	73	-0.01345963481115
232	4982	74	-0.020773710852955
232	4983	75	0.010047764098271
232	4984	76	-0.045673770897555
232	4985	77	0.083918201972264
232	4986	78	-0.034172091376968
232	4987	79	-0.001312927366234
232	4988	80	-0.00066869228146871
232	5155	81	0.037521175667642
232	5156	82	-0.027435249241535
232	5499	83	-0.00019839201355332
232	5501	84	-3.2523854832441
232	6133	85	2.1732867141068
232	6134	86	1.0574027096756
232	6983	87	0.033033572582061
232	6984	88	-0.02628598283045
232	7842	89	-0.044211894178297
229	3181	49	4.1228806306687
229	3182	50	5.8080455084829
229	3183	51	7.8808905039224
229	3184	52	9.7257425540712
229	3185	53	9.7656391497471
229	3186	54	9.814752888582
229	3187	55	9.7876185283417
229	3312	56	9.8294749091289
229	3313	57	9.7747122489338
229	3729	58	9.8191529818115
229	3730	59	9.7950520228388
229	4026	60	9.7853705087889
229	4027	61	6.2730094407555
229	4028	62	8.5469941693461
229	4029	63	9.8081002167755
229	4030	64	9.7416233341282
229	4172	65	9.732752487364
229	4173	66	9.7920969786312
229	4325	67	9.8330983571339
229	4326	68	9.7383645748885
229	4480	69	9.7757673248908
229	4481	70	9.7668200122708
229	4482	71	9.7154753308979
229	4645	72	9.8049633408341
229	4646	73	9.7915037060229
229	4982	74	9.77072999517
229	4983	75	9.7807777592682
229	4984	76	9.7351039883707
229	4985	77	9.8190221903429
229	4986	78	9.784850098966
229	4987	79	9.7835371715997
229	4988	80	9.7828684793183
229	5155	81	9.8203896549859
229	5156	82	9.7929544057444
229	5499	83	9.7927560137308
229	5501	84	6.5403705304867
229	6133	85	8.7136572445935
229	6134	86	9.7710599542691
229	6983	87	9.8040935268512
229	6984	88	9.7778075440208
229	7842	89	9.7335956498425
221	3180	48	599.59973953879
221	3181	49	596.86752073894
221	3182	50	592.59599693988
221	3183	51	586.68761660535
221	3184	52	579.12852317582
221	3185	53	570.83568576448
221	3186	54	562.45940574892
221	3187	55	554.02385734714
221	3312	56	545.57883819271
221	3313	57	537.17411415469
221	3729	58	528.78376591977
221	3730	59	520.41446263186
221	4026	60	512.06967811023
221	4027	61	505.03643965962
221	4028	62	498.178831527
221	4029	63	492.20275780235
221	4030	64	486.90851164363
221	4172	65	481.69583393764
221	4173	66	476.47538404545
221	4325	67	471.24592115522
221	4326	68	466.03033164108
221	4480	69	460.8252508492
221	4481	70	455.60667750277
221	4482	71	450.39081188514
221	4645	72	445.16304339489
221	4646	73	439.93736480831
221	4982	74	434.71836546366
221	4983	75	429.50403356146
221	4984	76	424.28449342821
221	4985	77	419.06757821212
221	4986	78	413.84230824552
221	4987	79	408.62192096729
221	4988	80	403.40281727489
221	5155	81	398.16922472923
221	5156	82	392.95206355497
221	5499	83	387.72624935496
221	5501	84	383.51073887991
221	6133	85	379.38587017736
221	6134	86	374.4668131367
221	6983	87	369.50967147477
221	6984	88	364.5676400337
221	7842	89	359.61327613457
220	3180	48	2170.5049173338
220	3181	49	2172.215707896
220	3182	50	2174.8903409093
220	3183	51	2178.589898688
220	3184	52	2183.3230575765
220	3185	53	2188.5156534177
220	3186	54	2193.5745480821
220	3187	55	2198.5032658819
220	3312	56	2203.4375172481
220	3313	57	2208.423736988
220	3729	58	2213.435532668
220	3730	59	2218.5126302661
220	4026	60	2223.5748539655
220	4027	61	2227.8414502181
220	4028	62	2226.6358543472
220	4029	63	2219.3660785553
220	4030	64	2211.1771078074
220	4172	65	2202.9230173611
220	4173	66	2194.6562556098
220	4325	67	2186.3754744275
220	4326	68	2178.1181429421
220	4480	69	2169.8774488864
220	4481	70	2161.6153933919
220	4482	71	2153.357624779
220	4645	72	2145.081011515
220	4646	73	2136.8077069905
220	4982	74	2128.5449770548
220	4983	75	2120.2896366232
220	4984	76	2112.02605051
220	4985	77	2103.7666201707
220	4986	78	2095.4939625742
220	4987	79	2087.2290352594
220	4988	80	2078.9660950867
220	5155	81	2070.6781082213
220	5156	82	2062.4204412469
220	5499	83	2054.1490783559
220	5501	84	2047.4768134081
220	6133	85	2040.8160176513
220	6134	86	2032.654227482
220	6983	87	2024.2189980806
220	6984	88	2015.80948071
220	7842	89	2007.3789780378
vector 415 RSUExampleScenario.node[84].veinsmobility posx ETV
vector 416 RSUExampleScenario.node[84].veinsmobility posy ETV
vector 417 RSUExampleScenario.node[82].veinsmobility acceleration ETV
vector 418 RSUExampleScenario.node[82].veinsmobility co2emission ETV
vector 419 RSUExampleScenario.node[83].veinsmobility speed ETV
vector 420 RSUExampleScenario.node[85].veinsmobility posx ETV
vector 421 RSUExampleScenario.node[85].veinsmobility posy ETV
vector 422 RSUExampleScenario.node[83].veinsmobility acceleration ETV
vector 423 RSUExampleScenario.node[83].veinsmobility co2emission ETV
vector 424 RSUExampleScenario.node[84].veinsmobility speed ETV
vector 425 RSUExampleScenario.node[86].veinsmobility posx ETV
vector 426 RSUExampleScenario.node[86].veinsmobility posy ETV
vector 427 RSUExampleScenario.node[84].veinsmobility acceleration ETV
vector 428 RSUExampleScenario.node[84].veinsmobility co2emission ETV
vector 429 RSUExampleScenario.node[85].veinsmobility speed ETV
vector 430 RSUExampleScenario.node[87].veinsmobility posx ETV
vector 431 RSUExampleScenario.node[87].veinsmobility posy ETV
vector 432 RSUExampleScenario.node[85].veinsmobility acceleration ETV
vector 433 RSUExampleScenario.node[85].veinsmobility co2emission ETV
vector 434 RSUExampleScenario.node[86].veinsmobility speed ETV
vector 435 RSUExampleScenario.node[88].veinsmobility posx ETV
vector 436 RSUExampleScenario.node[88].veinsmobility posy ETV
vector 437 RSUExampleScenario.node[86].veinsmobility acceleration ETV
vector 438 RSUExampleScenario.node[86].veinsmobility co2emission ETV
vector 439 RSUExampleScenario.node[87].veinsmobility speed ETV
vector 440 RSUExampleScenario.node[87].veinsmobility acceleration ETV
vector 441 RSUExampleScenario.node[87].veinsmobility co2emission ETV
vector 442 RSUExampleScenario.node[88].veinsmobility speed ETV
vector 443 RSUExampleScenario.node[89].veinsmobility posx ETV
vector 444 RSUExampleScenario.node[89].veinsmobility posy ETV
vector 445 RSUExampleScenario.node[88].veinsmobility acceleration ETV
vector 446 RSUExampleScenario.node[88].veinsmobility co2emission ETV
88	21	20	4.1799565805068
88	22	21	5.0665438856349
88	23	22	3.560111186349
88	24	23	1.4813807237528
88	25	24	1.5389869433112
88	26	25	0.973
88	27	26	6.5353624380341
88	28	27	1.8110452207631
88	29	28	1.6534010362638
88	30	29	1.4884888184971
88	31	30	1.6717371563363
88	32	31	1.6116291934013
88	121	32	1.6063132834773
88	122	33	1.4144643574975
88	663	34	1.720557391244
88	664	35	1.6141878973779
88	1163	36	1.6806464035756
88	1247	37	1.3797468688919
88	1339	38	1.6878072630496
88	1433	39	1.4677636119921
88	1537	40	1.6901643150862
88	1777	41	3.9332770614731
88	1872	42	1.6958122120351
88	2511	43	7.4570878371924
88	2512	44	1.8799818144116
88	3064	45	1.7488808115569
88	3065	46	1.6014898821479
88	3179	47	2.1304941053333
88	3180	48	1.5644098456854
88	3181	49	1.991028493834
88	3182	50	1.6028846656125
88	3183	51	2.0396481152733
88	3184	52	0.973
88	3185	53	3.8611303407563
88	3186	54	6.3436378349775
88	3187	55	0.973
88	3312	56	0.973
88	3313	57	0.973
88	3729	58	0.973
88	3730	59	0.973
88	4026	60	0.973
88	4027	61	0.973
88	4028	62	0.973
88	4029	63	0.973
88	4030	64	0.973
88	4172	65	0.973
88	4173	66	0.973
88	4325	67	0.973
88	4326	68	0.973
88	4480	69	0.973
88	4481	70	0.973
88	4482	71	0.973
88	4645	72	0.973
88	4646	73	0.973
88	4982	74	0.973
88	4983	75	0.973
88	4984	76	0.973
88	4985	77	0.973
88	4986	78	0.973
88	4987	79	0.973
88	4988	80	0.973
88	5155	81	0.973
88	5156	82	0.973
88	5499	83	0.973
88	5501	84	0.973
88	6133	85	0.973
88	6134	86	0.973
88	6983	87	0.973
88	6984	88	0.973
88	7842	89	0.973
88	7843	90	0.973
88	8443	91	2.4293864737858
88	8444	92	3.4566168114486
88	8445	93	4.1718474656543
88	8446	94	5.2654330548817
88	8448	95	3.0745439169917
88	8449	96	1.5809565150172
87	21	20	1.9101537924353
87	22	21	1.8644434863259
87	23	22	0.92701268627545
87	24	23	-0.053010261864403
87	25	24	-0.024898301474749
87	26	25	-2.4469849476671
87	27	26	2.3766684441669
87	28	27	0.10322206282119
87	29	28	0.027419260058087
87	30	29	-0.049256290232297
87	31	30	0.036564147789031
87	32	31	0.0078223098418668
87	121	32	0.0051340277562844
87	122	33	-0.083676309387664
87	663	34	0.060115432490129
87	664	35	0.0093420692672961
87	1163	36	0.039357867033686
87	1247	37	-0.10043817038182
87	1339	38	0.044843092267403
87	1433	39	-0.058090989668854
87	1537	40	0.046408839535433
87	1777	41	0.97141936539178
87	1872	42	0.013883676610421
87	2511	43	1.9962125694156
87	2512	44	0.019464913341217
87	3064	45	-0.026170233732556
87	3065	46	-0.076591967826243
87	3179	47	0.10787755751051
87	3180	48	-0.090227785184979
87	3181	49	0.059653068971821
87	3182	50	-0.076122591367458
87	3183	51	0.076861701053566
87	3184	52	-4.3286257639421
87	3185	53	1.1162906491011
87	3186	54	1.8569759559655
87	3187	55	-1.6215481583217
87	3312	56	-4.5
87	3313	57	-4.2210495415462
87	3729	58	-0.0073713627551334
87	3730	59	0
87	4026	60	0
87	4027	61	0
87	4028	62	0
87	4029	63	0
87	4030	64	0
87	4172	65	0
87	4173	66	0
87	4325	67	0
87	4326	68	0
87	4480	69	0
87	4481	70	0
87	4482	71	0
87	4645	72	0
87	4646	73	0
87	4982	74	0
87	4983	75	0
87	4984	76	0
87	4985	77	0
87	4986	78	0
87	4987	79	0
87	4988	80	0
87	5155	81	0
87	5156	82	0
87	5499	83	0
87	5501	84	0
87	6133	85	0
87	6134	86	0
87	6983	87	0
87	6984	88	0
87	7842	89	0
87	7843	90	0
87	8443	91	2.240928690505
87	8444	92	2.0578253736794
87	8445	93	1.8511750757671
87	8446	94	1.9133149100351
87	8448	95	0.70054362448865
87	8449	96	-0.0064165208162734
84	20	19	4.0869156999278
84	21	20	5.9970694923631
84	22	21	7.861512978689
84	23	22	8.7885256649645
84	24	23	8.7355154031001
84	25	24	8.7106171016253
84	26	25	6.2636321539582
84	27	26	8.6403005981251
84	28	27	8.7435226609463
84	29	28	8.7709419210043
84	30	29	8.721685630772
84	31	30	8.7582497785611
84	32	31	8.7660720884029
84	121	32	8.7712061161592
84	122	33	8.6875298067716
84	663	34	8.7476452392617
84	664	35	8.756987308529
84	1163	36	8.7963451755627
84	1247	37	8.6959070051809
84	1339	38	8.7407500974483
84	1433	39	8.6826591077794
84	1537	40	8.7290679473148
84	1777	41	9.7004873127066
84	1872	42	9.714370989317
84	2511	43	11.710583558733
84	2512	44	11.730048472074
84	3064	45	11.703878238341
84	3065	46	11.627286270515
84	3179	47	11.735163828026
84	3180	48	11.644936042841
84	3181	49	11.704589111812
84	3182	50	11.628466520445
84	3183	51	11.705328221499
84	3184	52	7.3767024575565
84	3185	53	8.4929931066576
84	3186	54	10.349969062623
84	3187	55	8.7284209043014
84	3312	56	4.2284209043014
84	3313	57	0.0073713627551334
84	3729	58	0
84	3730	59	0
84	4026	60	0
84	4027	61	0
84	4028	62	0
84	4029	63	0
84	4030	64	0
84	4172	65	0
84	4173	66	0
84	4325	67	0
84	4326	68	0
84	4480	69	0
84	4481	70	0
84	4482	71	0
84	4645	72	0
84	4646	73	0
84	4982	74	0
84	4983	75	0
84	4984	76	0
84	4985	77	0
84	4986	78	0
84	4987	79	0
84	4988	80	0
84	5155	81	0
84	5156	82	0
84	5499	83	0
84	5501	84	0
84	6133	85	0
84	6134	86	0
84	6983	87	0
84	6984	88	0
84	7842	89	0
84	7843	90	0
84	8443	91	2.240928690505
84	8444	92	4.2987540641844
84	8445	93	6.1499291399515
84	8446	94	8.0632440499866
84	8448	95	8.7637876744752
84	8449	96	8.757371153659
76	19	18	392.8562140029
76	20	19	395.55191928009
76	21	20	399.98479799422
76	22	21	406.01694393338
76	23	22	413.43137946224
76	24	23	421.00765986903
76	25	24	428.51946948325
76	26	25	435.33634666631
76	27	26	441.92842490256
76	28	27	449.49580730693
76	29	28	457.08220881532
76	30	29	464.67364681523
76	31	30	472.21012177059
76	32	31	479.75257404882
76	121	32	487.24590514415
76	122	33	494.7935448694
76	663	34	502.39885995248
76	664	35	509.98053466837
76	1163	36	517.58147322607
76	1247	37	525.15432528403
76	1339	38	532.73776160255
76	1433	39	540.32151968428
76	1537	40	547.89535721695
76	1777	41	556.46275921801
76	1872	42	565.17856621509
76	2511	43	570.93234575911
76	2512	44	577.12858330643
76	3064	45	583.32683281298
76	3065	46	589.51767523325
76	3179	47	595.71756160019
76	3180	48	601.88406106542
76	3181	49	607.98711549257
76	3182	50	614.09063315295
76	3183	51	620.19154290257
76	3184	52	625.1094590203
76	3185	53	629.36812433413
76	3186	54	636.60734129921
76	3187	55	642.0789818635
76	3312	56	645.40942367543
76	3313	57	646.36688227527
76	3729	58	646.36688818261
76	3730	59	646.36688818261
76	4026	60	646.36688818261
76	4027	61	646.36688818261
76	4028	62	646.36688818261
76	4029	63	646.36688818261
76	4030	64	646.36688818261
76	4172	65	646.36688818261
76	4173	66	646.36688818261
76	4325	67	646.36688818261
76	4326	68	646.36688818261
76	4480	69	646.36688818261
76	4481	70	646.36688818261
76	4482	71	646.36688818261
76	4645	72	646.36688818261
76	4646	73	646.36688818261
76	4982	74	646.36688818261
76	4983	75	646.36688818261
76	4984	76	646.36688818261
76	4985	77	646.36688818261
76	4986	78	646.36688818261
76	4987	79	646.36688818261
76	4988	80	646.36688818261
76	5155	81	646.36688818261
76	5156	82	646.36688818261
76	5499	83	646.36688818261
76	5501	84	646.36688818261
76	6133	85	646.36688818261
76	6134	86	646.36688818261
76	6983	87	646.36688818261
76	6984	88	646.36688818261
76	7842	89	646.36688818261
76	7843	90	646.36688818261
76	8443	91	647.09603879058
76	8444	92	649.44835019872
76	8445	93	654.58018802714
76	8446	94	661.27365342691
76	8448	95	668.78850549805
76	8449	96	676.38790395787
75	19	18	1573.619917465
75	20	19	1572.0318353085
75	21	20	1569.4203571
75	22	21	1565.8667255467
75	23	22	1561.5358567521
75	24	23	1557.1460885356
75	25	24	1552.706340824
75	26	25	1548.6632554275
75	27	26	1544.800381094
75	28	27	1540.4312886115
75	29	28	1536.0765219319
75	30	29	1531.7328905224
75	31	30	1527.3560647526
75	32	31	1522.89655472
75	121	32	1518.4217386242
75	122	33	1514.03971254
75	663	34	1509.7113844733
75	664	35	1505.3733994601
75	1163	36	1501.0234153659
75	1247	37	1496.6772567935
75	1339	38	1492.3061977218
75	1433	39	1487.929856122
75	1537	40	1483.5592393504
75	1777	41	1479.756939485
75	1872	42	1481.4871898542
75	2511	43	1490.6732496217
75	2512	44	1500.565705182
75	3064	45	1510.4613728879
75	3065	46	1520.3452149866
75	3179	47	1530.243495983
75	3180	48	1540.1477456404
75	3181	49	1550.1000396477
75	3182	50	1560.0530890526
75	3183	51	1570.0018857191
75	3184	52	1578.0152621514
75	3185	53	1584.1872013303
75	3186	54	1590.3484329404
75	3187	55	1599.0463424525
75	3312	56	1604.3405282045
75	3313	57	1605.8625375846
75	3729	58	1605.8625469751
75	3730	59	1605.8625469751
75	4026	60	1605.8625469751
75	4027	61	1605.8625469751
75	4028	62	1605.8625469751
75	4029	63	1605.8625469751
75	4030	64	1605.8625469751
75	4172	65	1605.8625469751
75	4173	66	1605.8625469751
75	4325	67	1605.8625469751
75	4326	68	1605.8625469751
75	4480	69	1605.8625469751
75	4481	70	1605.8625469751
75	4482	71	1605.8625469751
75	4645	72	1605.8625469751
75	4646	73	1605.8625469751
75	4982	74	1605.8625469751
75	4983	75	1605.8625469751
75	4984	76	1605.8625469751
75	4985	77	1605.8625469751
75	4986	78	1605.8625469751
75	4987	79	1605.8625469751
75	4988	80	1605.8625469751
75	5155	81	1605.8625469751
75	5156	82	1605.8625469751
75	5499	83	1605.8625469751
75	5501	84	1605.8625469751
75	6133	85	1605.8625469751
75	6134	86	1605.8625469751
75	6983	87	1605.8625469751
75	6984	88	1605.8625469751
75	7842	89	1605.8625469751
75	7843	90	1605.8625469751
75	8443	91	1606.9155245385
75	8444	92	1609.3320691864
75	8445	93	1610.0726604158
75	8446	94	1607.6503219691
75	8448	95	1603.3367551697
75	8449	96	1598.974658274
vector 447 RSUExampleScenario.node[90].veinsmobility posx ETV
vector 448 RSUExampleScenario.node[90].veinsmobility posy ETV
vector 449 RSUExampleScenario.node[89].veinsmobility speed ETV
161	664	35	4.11705397214
161	1163	36	5.7016276187655
161	1247	37	6.2508447462379
161	1339	38	7.5064028440827
161	1433	39	0.973
161	1537	40	0.973
161	1777	41	0.973
161	1872	42	0.973
161	2511	43	0.973
161	2512	44	0.973
161	3064	45	0.973
161	3065	46	2.5391301756359
161	3179	47	3.4836676963971
161	3180	48	4.2071633848401
161	3181	49	5.7018620119197
161	3182	50	6.6215988782581
161	3183	51	6.7125923703476
161	3184	52	5.5545161122751
161	3185	53	2.294972560567
161	3186	54	1.7352167248541
161	3187	55	2.0392785194281
161	3312	56	1.8371121773593
161	3313	57	2.0949655786876
161	3729	58	1.8982317801296
161	3730	59	2.0604045131872
161	4026	60	1.8725413556078
161	4027	61	1.7978521718877
161	4028	62	0.973
161	4029	63	0.973
161	4030	64	0.973
161	4172	65	1.8016678548407
161	4173	66	1.7706379821635
161	4325	67	1.4324283812433
161	4326	68	1.7924405022524
161	4480	69	1.6476015351274
161	4481	70	1.5884945029392
161	4482	71	1.7582110378436
161	4645	72	1.7270282187963
161	4646	73	1.6614907580121
161	4982	74	0.973
161	4983	75	0.973
161	4984	76	2.0455050856902
161	4985	77	4.2480941758799
161	4986	78	3.8371551664447
161	4987	79	1.6155898361555
161	4988	80	1.5777856510957
161	5155	81	1.8075345264419
161	5156	82	1.5341788216212
161	5499	83	1.7551377344608
161	5501	84	0.973
161	6133	85	0.973
161	6134	86	3.5646772729044
161	6983	87	4.8021049556381
161	6984	88	1.7169123714466
161	7842	89	1.4736174268238
161	7843	90	1.6921557711315
161	8443	91	1.7224087480171
161	8444	92	1.7034337726837
161	8445	93	1.7894969841798
161	8446	94	1.4554054887932
161	8448	95	1.7476193852348
161	8449	96	1.6371776420532
161	8450	97	1.6343908171305
160	664	35	1.9003140205378
160	1163	36	2.1430259709875
160	1247	37	1.9054627012368
160	1339	38	1.9714490047027
160	1433	39	-1.0322152992448
160	1537	40	-4.4982682385319
160	1777	41	-4.5
160	1872	42	-1.8921850438228
160	2511	43	0
160	2512	44	0
160	3064	45	0
160	3065	46	2.3361292956586
160	3179	47	2.0420878006472
160	3180	48	1.8487759704259
160	3181	49	2.0698949541664
160	3182	50	1.9838417249615
160	3183	51	1.6873666299391
160	3184	52	1.1407937233039
160	3185	53	0.10500517474255
160	3186	54	-0.069038556118031
160	3187	55	0.026098727891222
160	3312	56	-0.036584804900922
160	3313	57	0.043412639677991
160	3729	58	-0.018012688446325
160	3730	59	0.032069206472952
160	4026	60	-0.026277298128699
160	4027	61	-0.04852613106137
160	4028	62	-1.7519259673154
160	4029	63	-1.0063190116314
160	4030	64	-0.54363890015262
160	4172	65	0.053328182992992
160	4173	66	0.038895743570755
160	4325	67	-0.10060658289585
160	4326	68	0.049882167996838
160	4480	69	-0.010762365404517
160	4481	70	-0.0346973995585
160	4482	71	0.035812710437458
160	4645	72	0.021929270795081
160	4646	73	-0.0054563111369497
160	4982	74	-0.8560707493981
160	4983	75	-1.5562629050863
160	4984	76	0.27908245289766
160	4985	77	1.2233923629229
160	4986	78	0.90981034115142
160	4987	79	-0.024062661861535
160	4988	80	-0.038928489685059
160	5155	81	0.056235520953779
160	5156	82	-0.057361945267767
160	5499	83	0.034965517777017
160	5501	84	-0.77702271686888
160	6133	85	-1.4420754271443
160	6134	86	0.95949558343272
160	6983	87	1.3119317307628
160	6984	88	0.016535387949553
160	7842	89	-0.083477962685283
160	7843	90	0.0085875474871138
160	8443	91	0.020661763444076
160	8444	92	0.012263957017568
160	8445	93	0.046773361524101
160	8446	94	-0.091110327097121
160	8448	95	0.031309668046887
160	8449	96	-0.014778085811995
160	8450	97	-0.015488294931128
159	663	34	4.0024168841347
159	664	35	5.9027309046724
159	1163	36	8.0457568756599
159	1247	37	9.9512195768968
159	1339	38	11.922668581599
159	1433	39	10.890453282355
159	1537	40	6.3921850438228
159	1777	41	1.8921850438228
159	1872	42	0
159	2511	43	0
159	2512	44	0
159	3064	45	0
159	3065	46	2.3361292956586
159	3179	47	4.3782170963058
159	3180	48	6.2269930667318
159	3181	49	8.2968880208981
159	3182	50	10.28072974586
159	3183	51	11.968096375799
159	3184	52	13.108890099103
159	3185	53	13.213895273845
159	3186	54	13.144856717727
159	3187	55	13.170955445618
159	3312	56	13.134370640717
159	3313	57	13.177783280395
159	3729	58	13.159770591949
159	3730	59	13.191839798422
159	4026	60	13.165562500293
159	4027	61	13.117036369232
159	4028	62	11.365110401917
159	4029	63	10.358791390285
159	4030	64	9.8151524901326
159	4172	65	9.8684806731255
159	4173	66	9.9073764166963
159	4325	67	9.8067698338004
159	4326	68	9.8566520017973
159	4480	69	9.8458896363928
159	4481	70	9.8111922368343
159	4482	71	9.8470049472717
159	4645	72	9.8689342180668
159	4646	73	9.8634779069299
159	4982	74	9.0074071575318
159	4983	75	7.4511442524454
159	4984	76	7.7302267053431
159	4985	77	8.953619068266
159	4986	78	9.8634294094174
159	4987	79	9.8393667475559
159	4988	80	9.8004382578708
159	5155	81	9.8566737788246
159	5156	82	9.7993118335568
159	5499	83	9.8342773513338
159	5501	84	9.0572546344649
159	6133	85	7.6151792073206
159	6134	86	8.5746747907534
159	6983	87	9.8866065215162
159	6984	88	9.9031419094657
159	7842	89	9.8196639467804
159	7843	90	9.8282514942676
159	8443	91	9.8489132577116
159	8444	92	9.8611772147292
159	8445	93	9.9079505762533
159	8446	94	9.8168402491562
159	8448	95	9.8481499172031
159	8449	96	9.8333718313911
159	8450	97	9.8178835364599
151	122	33	931.37014308682
151	663	34	933.01528888753
151	664	35	935.66664733242
151	1163	36	939.37443933016
151	1247	37	944.18386595135
151	1339	38	949.97357318298
151	1433	39	956.35249097887
151	1537	40	960.77891925127
151	1777	41	962.83905759957
151	1872	42	963.00355088626
151	2511	43	963.00355088626
151	2512	44	963.00355088626
151	3064	45	963.00355088626
151	3065	46	963.74127844319
151	3179	47	966.24818099291
151	3180	48	971.29579150608
151	3181	49	977.56873148988
151	3182	50	985.59777279006
151	3183	51	995.14904220423
151	3184	52	1006.0681586014
151	3185	53	1017.2830640863
151	3186	54	1028.4858935968
151	3187	55	1039.6814180874
151	3312	56	1050.8708671693
151	3313	57	1062.0911436049
151	3729	58	1073.2780512265
151	3730	59	1084.4751857058
151	4026	60	1095.6628307312
151	4027	61	1106.8416466179
151	4028	62	1117.6581781859
151	4029	63	1125.7957208004
151	4030	64	1124.9940268659
151	4172	65	1120.0327874639
151	4173	66	1115.0620541382
151	4325	67	1110.1016565093
151	4326	68	1105.1283571216
151	4480	69	1100.1664699611
151	4481	70	1095.1946714935
151	4482	71	1090.2221613959
151	4645	72	1085.2566969759
151	4646	73	1080.292376114
151	4982	74	1075.3885908495
151	4983	75	1071.6900011223
151	4984	76	1065.9572901107
151	4985	77	1058.7166787487
151	4986	78	1050.3647789891
151	4987	79	1041.8585308584
151	4988	80	1033.3610491199
151	5155	81	1024.8494157304
151	5156	82	1016.3383255729
151	5499	83	1007.856973162
151	5501	84	999.44463329808
151	6133	85	994.4555669666
151	6134	86	997.59735550861
151	6983	87	1002.4212712914
151	6984	88	1007.4318524015
151	7842	89	1012.4459769638
151	7843	90	1017.4566186337
151	8443	91	1022.4678915471
151	8444	92	1027.4730037679
151	8445	93	1032.4859685917
151	8446	94	1037.4881677297
151	8448	95	1042.496596851
151	8449	96	1047.5126848497
151	8450	97	1052.5193104201
150	122	33	815.10278949534
150	663	34	817.76281104092
150	664	35	822.04976882023
150	1163	36	828.04486457178
150	1247	37	835.82118350273
150	1339	38	845.17896940227
150	1433	39	855.49381519987
150	1537	40	862.65144389568
150	1777	41	865.98273143761
150	1872	42	866.24872058203
150	2511	43	866.24872058203
150	2512	44	866.24872058203
150	3064	45	866.24872058203
150	3065	46	867.35195938566
150	3179	47	869.60453502923
150	3180	48	868.98026724145
150	3181	49	865.11407424183
150	3182	50	860.16554558564
150	3183	51	854.27882404168
150	3184	52	847.54905913306
150	3185	53	840.63699091801
150	3186	54	833.73236547265
150	3187	55	826.83224232076
150	3312	56	819.93148016728
150	3313	57	813.00127295276
150	3729	58	806.06665385204
150	3730	59	799.12569525477
150	4026	60	792.190619047
150	4027	61	785.26101590789
150	4028	62	778.55598812437
150	4029	63	772.08040146242
150	4030	64	762.92013997378
150	4172	65	754.41950037212
150	4173	66	745.90259378206
150	4325	67	737.41232649591
150	4326	68	728.90365646391
150	4480	69	720.40760937892
150	4481	70	711.89459154678
150	4482	71	703.37939884693
150	4645	72	694.87366932234
150	4646	73	686.37120362617
150	4982	74	677.97241814219
150	4983	75	671.64059014977
150	4984	76	667.37416868401
150	4985	77	670.9462499531
150	4986	78	675.82636921564
150	4987	79	680.7966761577
150	4988	80	685.76186078737
150	5155	81	690.73461488332
150	5156	82	695.70674718813
150	5499	83	700.66150686404
150	5501	84	705.57594978756
150	6133	85	711.01433881364
150	6134	86	718.18100128442
150	6983	87	726.34529370666
150	6984	88	734.82551003514
150	7842	89	743.31297138741
150	7843	90	751.80704144297
150	8443	91	760.30194238288
150	8444	92	768.77518788563
150	8445	93	777.26174819799
150	8446	94	785.73267329794
150	8448	95	794.21769169718
150	8449	96	802.71630869973
150	8450	97	811.19889377596
vector 450 RSUExampleScenario.node[89].veinsmobility acceleration ETV
vector 451 RSUExampleScenario.node[89].veinsmobility co2emission ETV
vector 452 RSUExampleScenario.node[90].veinsmobility speed ETV
vector 453 RSUExampleScenario.node[91].veinsmobility posx ETV
vector 454 RSUExampleScenario.node[91].veinsmobility posy ETV
vector 455 RSUExampleScenario.node[90].veinsmobility acceleration ETV
vector 456 RSUExampleScenario.node[90].veinsmobility co2emission ETV
vector 457 RSUExampleScenario.node[92].veinsmobility posx ETV
vector 458 RSUExampleScenario.node[92].veinsmobility posy ETV
vector 459 RSUExampleScenario.node[91].veinsmobility speed ETV
178	1433	39	4.5749953339179
178	1537	40	5.1674433902211
178	1777	41	2.6505174649113
178	1872	42	1.2845689413717
178	2511	43	0.973
178	2512	44	0.973
178	3064	45	3.9304526103429
178	3065	46	2.6717619552892
178	3179	47	1.4359671077665
178	3180	48	1.6099499346996
178	3181	49	1.642801613953
178	3182	50	1.5070999994667
178	3183	51	1.4867655973493
178	3184	52	1.6633071289584
178	3185	53	1.5697756008131
178	3186	54	1.5658855746517
178	3187	55	1.7080929498735
178	3312	56	1.4962414776126
178	3313	57	1.5692220248931
178	3729	58	1.4704690770833
178	3730	59	1.617118822162
178	4026	60	1.7307386934745
178	4027	61	1.4428025975523
178	4028	62	1.7201865543917
178	4029	63	1.4494891083566
178	4030	64	0.973
178	4172	65	2.258535497892
178	4173	66	2.9524130185766
178	4325	67	1.5079515590777
178	4326	68	1.8087162150092
178	4480	69	1.5857251511935
178	4481	70	1.35000923842
178	4482	71	1.5541311655719
178	4645	72	1.7617915742654
178	4646	73	1.468911882344
178	4982	74	1.6999631591017
178	4983	75	1.3735677224364
178	4984	76	1.6735209688944
178	4985	77	1.5696363685785
178	4986	78	1.6376262333278
178	4987	79	1.6679293473158
178	4988	80	1.4420402448605
178	5155	81	1.4890230358131
178	5156	82	0.973
178	5499	83	1.5049236503079
178	5501	84	2.1320673987242
178	6133	85	1.6716749099288
178	6134	86	1.592916149205
178	6983	87	1.6202244299253
178	6984	88	1.4870908971277
178	7842	89	0.973
178	7843	90	1.4103618361404
178	8443	91	4.1045028141077
178	8444	92	1.4781056753857
178	8445	93	1.488302668771
178	8446	94	1.6785599319739
178	8448	95	1.5988564498948
178	8449	96	1.6021663596058
178	8450	97	1.6312443334677
178	8451	98	1.3531819196112
178	8452	99	1.7254650199828
178	8453	100	1.5383173576756
177	1433	39	2.1755690815556
177	1537	40	1.9019117126055
177	1777	41	0.52915124194091
177	1872	42	-0.1394415375775
177	2511	43	-1.0522020497653
177	2512	44	-0.46074862401234
177	3064	45	1.2328723429004
177	3065	46	0.52905318791639
177	3179	47	-0.068453880797605
177	3180	48	0.016024734708481
177	3181	49	0.030909305617678
177	3182	50	-0.034061587085015
177	3183	51	-0.042778022396378
177	3184	52	0.042199574199039
177	3185	53	-0.0033428071346133
177	3186	54	-0.0050761521630918
177	3187	55	0.061885295477696
177	3312	56	-0.039738130734769
177	3313	57	-0.0040413509123027
177	3729	58	-0.050801690907683
177	3730	59	0.020394847560674
177	4026	60	0.072922311415896
177	4027	61	-0.065097241164185
177	4028	62	0.067696313664783
177	4029	63	-0.061977577626239
177	4030	64	-1.0552832635529
177	4172	65	0.3854709655093
177	4173	66	0.67197174830036
177	4325	67	-0.032523327686359
177	4326	68	0.10982478267979
177	4480	69	0.0018397319666104
177	4481	70	-0.10999053932959
177	4482	71	-0.0096268606651577
177	4645	72	0.088391888323239
177	4646	73	-0.052425540264229
177	4982	74	0.058136361739598
177	4983	75	-0.098145405668765
177	4984	76	0.047272892249749
177	4985	77	-0.0033364844555042
177	4986	78	0.028812029552645
177	4987	79	0.041957536782139
177	4988	80	-0.065784380177501
177	5155	81	-0.041668320326135
177	5156	82	-0.2310643341496
177	5499	83	-0.026150390102993
177	5501	84	0.27274864429481
177	6133	85	0.045555971234572
177	6134	86	0.0069614309677846
177	6983	87	0.019554186852183
177	6984	88	-0.043852431240957
177	7842	89	-1.1264345847362
177	7843	90	-0.050604017516599
177	8443	91	1.2249715835636
177	8444	92	-0.04822914296761
177	8445	93	-0.042061348550488
177	8446	94	0.049314619239887
177	8448	95	0.010101560566108
177	8449	96	0.011321498875041
177	8450	97	0.024575498090124
177	8451	98	-0.10806931472151
177	8452	99	0.071780734464992
177	8453	100	-0.018787328628823
174	1339	38	3.8411307541832
174	1433	39	6.0166998357388
174	1537	40	7.9186115483443
174	1777	41	8.4477627902852
174	1872	42	8.3083212527077
174	2511	43	7.2561192029424
174	2512	44	6.7953705789301
174	3064	45	8.0282429218305
[...]
991	47944	228	486.22162294216
991	47945	229	490.26575823022
991	47946	230	494.3103276203
991	47947	231	498.40095690561
991	47948	232	502.73712412785
991	47949	233	507.09236882985
991	47950	234	511.44925824208
991	47952	235	515.80108536931
991	47953	236	520.14812096428
991	47955	237	524.51367773018
992	42681	222	1475.7959342956
992	42682	223	1474.1238463644
992	44280	224	1471.3652130124
992	44281	225	1467.5489772769
992	45112	226	1463.699414366
992	45113	227	1463.3097123216
992	47944	228	1463.4282569132
992	47945	229	1463.4282569132
992	47946	230	1463.4282569132
992	47947	231	1463.4282569132
992	47948	232	1463.4499619086
992	47949	233	1463.8472339011
992	47950	234	1464.3424685276
992	47952	235	1464.6714009328
992	47953	236	1464.8617534058
992	47955	237	1464.9629425911
993	42681	222	879.90205027667
993	42682	223	882.57510186052
993	44280	224	886.98513862546
993	44281	225	893.08589133511
993	45112	226	899.2399219002
993	45113	227	902.31495323394
993	47944	228	902.51338657211
993	47945	229	902.51338657211
993	47946	230	902.51338657211
993	47947	231	902.51338657211
993	47948	232	902.54971884704
993	47949	233	902.63264301343
993	47950	234	902.67666386912
993	47952	235	902.54875835849
993	47953	236	902.46302709205
993	47955	237	902.41745333683
994	42681	222	2.1399584263749
994	42682	223	2.0842780086189
994	44280	224	1.9581804833934
994	44281	225	0.91315039803925
994	45112	226	-0.11631632880773
994	45113	227	0.036883985637688
994	47944	228	0.052909807723481
994	47945	229	0.025853894257452
994	47946	230	-0.033918829380999
994	47947	231	-0.059913081363774
994	47948	232	-0.0019445755099881
994	47949	233	-4.1996198193832
994	47950	234	-3.2603244089917
994	47952	235	0.10087348806439
994	47953	236	1.819774425521
994	47955	237	2.0881891648262
995	42681	222	4.578629161262
995	42682	223	5.6738819271533
995	44280	224	6.4892120647074
995	44281	225	4.2050699323307
995	45112	226	1.4526827296065
995	45113	227	1.8603913512604
995	47944	228	1.907840181647
995	47945	229	1.8381247232517
995	47946	230	1.6761821326181
995	47947	231	1.6030227863196
995	47948	232	1.7561772599044
995	47949	233	0.973
995	47950	234	0.973
995	47952	235	1.3764860620629
995	47953	236	3.7695451782126
995	47955	237	5.2970943612591
996	42681	222	3.9760329637797
996	42682	223	6.1808119067927
996	44280	224	7.4805940822054
996	44281	225	7.5669580073895
996	45112	226	5.4334037211191
996	45113	227	3.1088346137654
996	47944	228	1.5606965983515
996	47945	229	0.67265302830689
996	47946	230	0.24721247429332
996	47947	231	0.089640825049877
996	47948	232	0.031718551163058
996	47949	233	0.011729479953441
996	47950	234	0.0040760340964275
996	47952	235	0.0014826303595657
996	47953	236	0.0005166352576421
996	47955	237	0.00018710785726636
997	42682	223	1531.5823026864
997	44280	224	1534.2577780272
997	44281	225	1538.660381029
997	45112	226	1544.6827352322
997	45113	227	1551.8515888624
997	47944	228	1559.0503899829
997	47945	229	1566.0582296022
997	47946	230	1572.0384510038
997	47947	231	1575.2670989746
997	47948	232	1571.6216788723
997	47949	233	1567.2314307474
997	47950	234	1562.8360000529
997	47952	235	1558.4477259872
997	47953	236	1554.052970425
997	47955	237	1549.6572644844
998	42682	223	685.68487908095
998	44280	224	687.32448154636
998	44281	225	690.02251378971
998	45112	226	693.71317266013
998	45113	227	698.12977822932
998	47944	228	702.5788884071
998	47945	229	706.90997771669
998	47946	230	710.80323144825
998	47947	231	717.00055264242
998	47948	232	723.92450393809
998	47949	233	731.14317260665
998	47950	234	738.37036271924
998	47952	235	745.58578553953
998	47953	236	752.81186556513
998	47955	237	760.02730452523
999	42682	223	2.2047789430129
999	44280	224	1.2997821754127
999	44281	225	0.086363925184124
999	45112	226	-2.1335542862705
999	45113	227	-2.3245691073537
999	47944	228	-1.5481380154139
999	47945	229	-0.88804357004456
999	47946	230	-0.42544055401357
999	47947	231	-0.15757164924344
999	47948	232	-0.057922273886819
999	47949	233	-0.019989071209617
999	47950	234	-0.0076534458570131
999	47952	235	-0.0025934037368618
999	47953	236	-0.00096599510192357
999	47955	237	-0.00032952740037574
1000	42682	223	4.7141601289943
1000	44280	224	3.8528118897321
1000	44281	225	1.6725519839543
1000	45112	226	0.973
1000	45113	227	0.973
1000	47944	228	0.973
1000	47945	229	0.973
1000	47946	230	0.973
1000	47947	231	0.973
1000	47948	232	1.1110873380995
1000	47949	233	1.1105093250622
1000	47950	234	1.1101891097259
1000	47952	235	1.1100705954296
1000	47953	236	1.1100248022097
1000	47955	237	1.1100090112237
1001	42682	223	3.368602509296
1001	44280	224	5.2129668301763
1001	44281	225	6.9714626755658
1001	45112	226	8.1183547563596
1001	45113	227	8.045138279067
1001	47944	228	8.0721180534807
1001	47945	229	8.1005585419598
1001	47946	230	8.037053832051
1001	47947	231	8.0325132684691
1001	47948	232	8.1239401992505
1001	47949	233	8.0591688445375
1001	47950	234	8.0631900505025
1001	47952	235	8.0166820823216
1001	47953	236	8.1078238952953
1001	47955	237	8.1213575695899
1002	42682	223	4.1042878505933
1002	44280	224	6.1499853328704
1002	44281	225	8.0560163491588
1002	45112	226	5.4230137803139
1002	45113	227	1.6009062458485
1002	47944	228	0
1002	47945	229	0
1002	47946	230	0
1002	47947	231	0
1002	47948	232	0.16367234411087
1002	47949	233	0.52172814156431
1002	47950	234	0.45788086872663
1002	47952	235	0.27955029433484
1002	47953	236	0.15533114824002
1002	47955	237	0.080874389640342
1003	44280	224	1.8443643208803
1003	44281	225	1.7584958453896
1003	45112	226	1.1468920807938
1003	45113	227	-0.07321647729259
1003	47944	228	0.026979774413631
1003	47945	229	0.028440488479101
1003	47946	230	-0.06350470990874
1003	47947	231	-0.0045405635819762
1003	47948	232	0.091426930781454
1003	47949	233	-0.064771354713011
1003	47950	234	0.004021205964964
1003	47952	235	-0.046507968180814
1003	47953	236	0.091141812973655
1003	47955	237	0.013533674294596
1004	44280	224	3.6916811590889
1004	44281	225	4.4320918093061
1004	45112	226	3.7949791617674
1004	45113	227	1.4042427481556
1004	47944	228	1.6004735924768
1004	47945	229	1.6053975309574
1004	47946	230	1.4226615504434
1004	47947	231	1.5365756680041
1004	47948	232	1.7304313978072
1004	47949	233	1.4213267439735
1004	47950	234	1.5552100597793
1004	47952	235	1.4544648910353
1004	47953	236	1.728447534261
1004	47955	237	1.5777463274514
1005	44280	224	2.0456974822772
1005	44281	225	1.9060310162883
1005	45112	226	-2.6330025688449
1005	45113	227	-3.8221075344654
1005	47944	228	-1.6009062458485
1005	47945	229	0
1005	47946	230	0
1005	47947	231	0
1005	47948	232	0.16367234411087
1005	47949	233	0.35805579745344
1005	47950	234	-0.063847272837679
1005	47952	235	-0.17833057439179
1005	47953	236	-0.12421914609482
1005	47955	237	-0.07445675859968
1006	44280	224	4.4601865321485
1006	44281	225	5.2474798400864
1006	45112	226	0.973
1006	45113	227	0.973
1006	47944	228	0.973
1006	47945	229	0.973
1006	47946	230	0.973
1006	47947	231	0.973
1006	47948	232	1.1243520202512
1006	47949	233	1.1802019610659
1006	47950	234	1.1250515400139
1006	47952	235	0.973
1006	47953	236	0.973
1006	47955	237	1.1124502129997
1007	44280	224	4.1007308436548
1007	44281	225	5.9758101288126
1007	45112	226	7.9974997169049
1007	45113	227	8.4598795254992
1007	47944	228	8.4074780889622
1007	47945	229	7.2879261922198
1007	47946	230	7.3903540029846
1007	47947	231	7.3722679097442
1007	47948	232	8.3877882019614
1007	47949	233	8.4616755158103
1007	47950	234	8.4226705850589
1007	47952	235	8.3965674109522
1007	47953	236	8.4754849289542
1007	47955	237	8.456705226253
1008	44281	225	1309.0873508284
1008	45112	226	1306.4553021914
1008	45113	227	1302.0147242972
1008	47944	228	1295.9465677277
1008	47945	229	1288.7232458239
1008	47946	230	1281.4803871068
1008	47947	231	1274.2918665096
1008	47948	232	1267.1799068813
1008	47949	233	1260.0444995859
1008	47950	234	1252.8933184504
1008	47952	235	1245.7542712376
1008	47953	236	1238.6099735157
1008	47955	237	1231.4718893294
1009	44281	225	1131.539386043
1009	45112	226	1129.9882937813
1009	45113	227	1127.3714173632
1009	47944	228	1123.7953927543
1009	47945	229	1119.5386178029
1009	47946	230	1115.2070315826
1009	47947	231	1110.7904286821
1009	47948	232	1106.3139236094
1009	47949	233	1101.8226597914
1009	47950	234	1097.3214673913
1009	47952	235	1092.8279124877
1009	47953	236	1088.3310527382
1009	47955	237	1083.8381039956
1010	44281	225	2131.9923558793
1010	45112	226	2130.3721517832
1010	45113	227	2127.7873098403
1010	47944	228	2124.1898181073
1010	47945	229	2119.9320047427
1010	47946	230	2115.6671366325
1010	47947	231	2111.3813286068
1010	47948	232	2107.0940808529
1010	47949	233	2102.8146985897
1010	47950	234	2098.5302587527
1010	47952	235	2094.2482616217
1010	47953	236	2090.5257690256
1010	47955	237	2089.0775815076
1011	44281	225	232.63641773325
1011	45112	226	235.2100526449
1011	45113	227	239.3159794733
1011	47944	228	245.03046343301
1011	47945	229	251.79384413874
1011	47946	230	258.56843104966
1011	47947	231	265.36195514454
1011	47948	232	272.15324457772
1011	47949	233	278.93207454342
1011	47950	234	285.71891604704
1011	47952	235	292.5018881397
1011	47953	236	298.39856733435
1011	47955	237	300.69259398109
1012	44281	225	1.8750792851578
1012	45112	226	2.0216895880923
1012	45113	227	0.46237980859429
1012	47944	228	-0.052401436537039
1012	47945	229	-1.1195518967424
1012	47946	230	0.10242781076485
1012	47947	231	-0.018086093240417
1012	47948	232	1.0155202922172
1012	47949	233	0.073887313848827
1012	47950	234	-0.039004930751398
1012	47952	235	-0.026103174106684
1012	47953	236	0.078917518001981
1012	47955	237	-0.01877970270114
1013	44281	225	4.1184199360808
1013	45112	226	5.4396523598119
1013	45113	227	2.5167514883064
1013	47944	228	1.4643005301563
1013	47945	229	0.973
1013	47946	230	1.6862302647285
1013	47947	231	1.4705191947324
1013	47948	232	3.6219723420971
1013	47949	233	1.7248352098068
1013	47950	234	1.4923327865505
1013	47952	235	1.5169149758546
1013	47953	236	1.7362963992573
1013	47955	237	1.5355468784853
1014	45112	226	1535.8095510455
1014	45113	227	1534.2493636044
1014	47944	228	1531.7434808016
1014	47945	229	1528.271751414
1014	47946	230	1523.990627477
1014	47947	231	1519.5848791806
1014	47948	232	1515.236693357
1014	47949	233	1510.984324079
1014	47950	234	1506.7361255968
1014	47952	235	1502.4693207136
1014	47953	236	1498.2146148627
1014	47955	237	1493.9263214592
1015	45112	226	457.54879834406
1015	45113	227	460.27556429409
1015	47944	228	464.65513800547
1015	47945	229	470.64732583484
1015	47946	230	477.92048771604
1015	47947	231	485.29816089876
1015	47948	232	492.69032715547
1015	47949	233	500.16217487831
1015	47950	234	507.59936690656
1015	47952	235	515.05499424073
1015	47953	236	522.47559531501
1015	47955	237	529.93025076125
1016	45112	226	4.0288536429881
1016	45113	227	6.0372522851602
1016	47944	228	7.926586614627
1016	47945	229	8.3707216995479
1016	47946	230	8.4205831075217
1016	47947	231	8.459801209901
1016	47948	232	8.4486968120737
1016	47949	233	8.4431203097701
1016	47950	234	8.4306702155191
1016	47952	235	8.4611958808908
1016	47953	236	8.408776425702
1016	47955	237	8.4432059079609
1017	45112	226	3.7585262007742
1017	45113	227	5.7635922390884
1017	47944	228	7.526403986312
1017	47945	229	8.0305202832503
1017	47946	230	8.0393068023526
1017	47947	231	7.9966035920602
1017	47948	232	8.0695240195968
1017	47949	233	8.0223486430722
1017	47950	234	8.0037214538094
1017	47952	235	8.072616378084
1017	47953	236	5.1848601696077
1017	47955	237	0.69124366916863
1018	45113	227	2.0083986421721
1018	47944	228	1.8893343294668
1018	47945	229	0.44413508492092
1018	47946	230	0.049861407973802
1018	47947	231	0.039218102379238
1018	47948	232	-0.011104397827294
1018	47949	233	-0.0055765023035921
1018	47950	234	-0.012450094250962
1018	47952	235	0.030525665371679
1018	47953	236	-0.052419455188792
1018	47955	237	0.034429482258856
1019	45113	227	4.3437403030383
1019	47944	228	5.1475956246529
1019	47945	229	2.4639596270264
1019	47946	230	1.6725525188852
1019	47947	231	1.6539902267106
1019	47948	232	1.5506661881423
1019	47949	233	1.561549976457
1019	47950	234	1.5467548081632
1019	47952	235	1.6363731868353
1019	47953	236	1.4643356883028
1019	47955	237	1.6429603641895
1020	45113	227	2.0050660383143
1020	47944	228	1.7628117472236
1020	47945	229	0.50411629693833
1020	47946	230	0.0087865191022871
1020	47947	231	-0.042703210292384
1020	47948	232	0.072920427536591
1020	47949	233	-0.047175376524683
1020	47950	234	-0.018627189262769
1020	47952	235	0.068894924274646
1020	47953	236	-2.8877562084763
1020	47955	237	-4.4936165004391
1021	45113	227	4.1908109355743
1021	47944	228	4.7099587692417
1021	47945	229	2.5208778749163
1021	47946	230	1.5628383954998
1021	47947	231	1.4606970927906
1021	47948	232	1.6896280897388
1021	47949	233	1.4534853720671
1021	47950	234	1.5075336196059
1021	47952	235	1.6820558180989
1021	47953	236	0.973
1021	47955	237	0.973
1022	45113	227	3.9166612594672
1022	47944	228	6.0072162381517
1022	47945	229	7.7390378126041
1022	47946	230	8.6208607308882
1022	47947	231	8.5958887121932
1022	47948	232	8.5735486277671
1022	47949	233	8.6121713709238
1022	47950	234	8.5193254027295
1022	47952	235	8.5690279879643
1022	47953	236	8.6159923588683
1022	47955	237	8.5486970444711
1023	47944	228	793.91079821716
1023	47945	229	796.40693282141
1023	47946	230	800.58916484113
1023	47947	231	806.40987598254
1023	47948	232	812.31962613564
1023	47949	233	818.39840338004
1023	47950	234	824.78400934522
1023	47952	235	831.21358138363
1023	47953	236	837.6406897106
1023	47955	237	844.08446333729
1024	47944	228	454.44491393386
1024	47945	229	456.13388725486
1024	47946	230	458.96373396727
1024	47947	231	462.8928735556
1024	47948	232	466.84308409043
1024	47949	233	471.06844209113
1024	47950	234	474.90335877644
1024	47952	235	478.62216892376
1024	47953	236	482.33955408119
1024	47955	237	486.06657830719
1025	47944	228	2.0905549786845
1025	47945	229	1.7318215744523
1025	47946	230	0.8818229182841
1025	47947	231	-0.024972018694971
1025	47948	232	-0.022340084426105
1025	47949	233	0.038622743156738
1025	47950	234	-0.092845968194306
1025	47952	235	0.049702585234773
1025	47953	236	0.046964370904025
1025	47955	237	-0.067295314397198
1026	47944	228	4.4463922432001
1026	47945	229	4.7561843644744
1026	47946	230	3.4171565723564
1026	47947	231	1.5316073203173
1026	47948	232	1.5356459722753
1026	47949	233	1.6646219075551
1026	47950	234	1.387464883741
1026	47952	235	1.6841380858411
1026	47953	236	1.6822413812866
1026	47955	237	1.4414577603421
1027	47945	229	571.33692117579
1027	47946	230	573.93468064631
1027	47947	231	578.10498607627
1027	47948	232	583.81520915189
1027	47949	233	590.10021141077
1027	47950	234	596.41744166251
1027	47952	235	602.71791920438
1027	47953	236	609.00875314344
1027	47955	237	615.30431125846
1028	47945	229	910.55585444068
1028	47946	230	912.09667475947
1028	47947	231	914.57022606972
1028	47948	232	917.95715539845
1028	47949	233	921.685005992
1028	47950	234	925.43197211445
1028	47952	235	929.16900162958
1028	47953	236	932.90031119284
1028	47955	237	936.63442282703
1029	47945	229	3.8243659648373
1029	47946	230	6.0622995856618
1029	47947	231	7.4136087658482
1029	47948	232	6.8507353056018
1029	47949	233	7.4474974695354
1029	47950	234	7.4103979938936
1029	47952	235	7.4724297693412
1029	47953	236	7.4866458081773
1029	47955	237	7.4884627313416
1030	47946	230	2.2379336208245
1030	47947	231	1.3513091801865
1030	47948	232	-0.56287346024648
1030	47949	233	0.5967621639336
1030	47950	234	-0.037099475641735
1030	47952	235	0.06203177544754
1030	47953	236	0.014216038836167
1030	47955	237	0.0018169231642968
1031	47946	230	4.6926800031574
1031	47947	231	3.9196302304848
1031	47948	232	0.973
1031	47949	233	2.5785235895601
1031	47950	234	1.4388135872602
1031	47952	235	1.6207244081045
1031	47953	236	1.5355700644597
1031	47955	237	1.5133152416426
1032	47946	230	3.8580399124196
1032	47947	231	5.6915639522636
1032	47948	232	7.3526049532517
1032	47949	233	7.2652219539703
1032	47950	234	7.3847616155826
1032	47952	235	7.3486225154585
1032	47953	236	7.2854548828917
1032	47955	237	7.2956721111954
1033	47947	231	1076.4316417951
1033	47948	232	1077.7105778543
1033	47949	233	1079.9315543859
1033	47950	234	1083.1622471527
1033	47952	235	1087.3613049397
1033	47953	236	1092.5924078231
1033	47955	237	1097.9522876157
1034	47947	231	652.98196675537
1034	47948	232	650.92297040479
1034	47949	233	647.34735570491
1034	47950	234	642.1461694775
1034	47952	235	635.38598424609
1034	47953	236	626.964279604
1034	47955	237	618.33525327118
1035	47947	231	2139.812095055
1035	47948	232	2137.1768094688
1035	47949	233	2132.9153660814
1035	47950	234	2127.8088397595
1035	47952	235	2125.7910807079
1035	47953	236	2125.7900896446
1035	47955	237	2125.7900896446
1036	47947	231	698.31421622019
1036	47948	232	696.67617197215
1036	47949	233	694.02733843945
1036	47950	234	690.8532171553
1036	47952	235	689.59901585521
1036	47953	236	689.59839982885
1036	47955	237	689.59839982885
1037	47947	231	1.8335240398441
1037	47948	232	1.661041000988
1037	47949	233	-0.087382999281399
1037	47950	234	0.11953966161236
1037	47952	235	-0.036139100124128
1037	47953	236	-0.063167632566764
1037	47955	237	0.010217228303663
1038	47947	231	3.9165773784625
1038	47948	232	4.4447368999849
1038	47949	233	1.3428995722114
1038	47950	234	1.716192286747
1038	47952	235	1.4371543877014
1038	47953	236	1.3862635250034
1038	47955	237	1.5157808113517
1039	47948	232	932.63030669831
1039	47949	233	935.27217785892
1039	47950	234	939.60646996083
1039	47952	235	945.68280531573
1039	47953	236	953.2533788434
1039	47955	237	961.63825201939
1040	47948	232	1004.166085778
1040	47949	233	1005.8189729211
1040	47950	234	1008.5307235154
1040	47952	235	1012.3323837686
1040	47953	236	1017.0689143901
1040	47955	237	1022.3149117256
1041	47948	232	3.2462439506174
1041	47949	233	5.0822598167158
1041	47950	234	6.9476558875198
1041	47952	235	8.8567556443995
1041	47953	236	10.700638468763
1041	47955	237	9.7416209556673
1042	47948	232	3.9490836466546
1042	47949	233	5.8083915957901
1042	47950	234	4.8183653596861
1042	47952	235	0.35828174959678
1042	47953	236	0
1042	47955	237	0
1043	47949	233	1.8360158660985
1043	47950	234	1.865396070804
1043	47952	235	1.9090997568797
1043	47953	236	1.8438828243637
1043	47955	237	-0.95901751309595
1044	47949	233	3.6160923595295
1044	47950	234	4.5995266893269
1044	47952	235	5.6763610856751
1044	47953	236	6.494491518677
1044	47955	237	0.973
1045	47949	233	1.8593079491355
1045	47950	234	-0.99002623610406
1045	47952	235	-4.4600836100893
1045	47953	236	-0.35828174959678
1045	47955	237	0
1046	47949	233	4.0110002541171
1046	47950	234	0.973
1046	47952	235	0.973
1046	47953	236	0.973
1046	47955	237	0.973
1047	47949	233	3.9878769401904
1047	47950	234	6.054026193209
1047	47952	235	8.0053434576444
1047	47953	236	9.7592964920844
1047	47955	237	9.840685505351
1048	47950	234	1501.2896207565
1048	47952	235	1498.4042156428
1048	47953	236	1493.5460645025
1048	47955	237	1486.9464070689
1049	47950	234	739.25021688478
1049	47952	235	737.97372858591
1049	47953	236	735.87321670392
1049	47955	237	733.01466869642
1050	47950	234	2.0661492530187
1050	47952	235	1.9513172644353
1050	47953	236	1.7539530344401
1050	47955	237	0.081389013266561
1051	47950	234	4.4370976735932
1051	47952	235	5.3082231339092
1051	47953	236	5.7919366410555
1051	47955	237	1.8657709348508
1052	47952	235	2102.7958909607
1052	47953	236	2102.7210570821
1052	47955	237	2102.6943140803
1053	47952	235	702.28722298546
1053	47953	236	702.40640125759
1053	47955	237	702.44899138925
1054	47952	235	4.1578080474362
1054	47953	236	6.1490687316339
1054	47955	237	7.6940863916563
1055	47953	236	1547.409880141
1055	47955	237	1549.1133286037
1056	47953	236	1178.6996670859
1056	47955	237	1175.9114451313
1057	47953	236	1.9912606841978
1057	47955	237	1.5450176600223
1058	47953	236	4.3790095298432
1058	47955	237	4.3881269843496
1059	47953	236	0.084436354833851
1059	47955	237	0.031030935049142
1060	47955	237	1372.033187282
1061	47955	237	492.33992275562
1062	47955	237	1751.5444218649
1063	47955	237	844.19519931136
1064	47955	237	-0.053405419784709
1065	47955	237	1.1110975450199
1066	47955	237	4.190821817844

